<?xml version="1.0" encoding="UTF-8"?>

<!-- generated on 2026-05-12 08:28:26 by Eclipse SUMO netconvert Version 1.18.0
<configuration xmlns:xsi="http://www.w3.org/2001/XMLSchema-instance" xsi:noNamespaceSchemaLocation="http://sumo.dlr.de/xsd/netconvertConfiguration.xsd">

    <input>
        <sumo-net-file value="/workspace/TeacherLight-v4/OurLight/envs/sumo_files_marl/generalization_benchmark/generalization_benchmark_enhanced_20260512/20260512_082826_rolloutsource_0_x3_y3_del0_seed1100/origin_grid3x3.net.xml"/>
    </input>

    <output>
        <plain-output-prefix value="/workspace/TeacherLight-v4/OurLight/envs/sumo_files_marl/generalization_benchmark/generalization_benchmark_enhanced_20260512/20260512_082826_rolloutsource_0_x3_y3_del0_seed1100/base_plain"/>
    </output>

    <processing>
        <geometry.min-radius.fix.railways value="false"/>
        <geometry.max-grade.fix value="false"/>
        <offset.disable-normalization value="true"/>
        <lefthand value="0"/>
    </processing>

    <junctions>
        <no-turnarounds value="true"/>
        <junctions.corner-detail value="5"/>
        <junctions.limit-turn-speed value="5.50"/>
        <rectangular-lane-cut value="0"/>
    </junctions>

    <pedestrian>
        <walkingareas value="0"/>
    </pedestrian>

</configuration>
-->

<nodes version="1.16" xmlns:xsi="http://www.w3.org/2001/XMLSchema-instance" xsi:noNamespaceSchemaLocation="http://sumo.dlr.de/xsd/nodes_file.xsd">
    <location netOffset="0.00,0.00" convBoundary="0.00,0.00,1280.00,1280.00" origBoundary="0.00,0.00,1280.00,1280.00" projParameter="!"/>

    <node id="A0" x="300.00" y="300.00" type="traffic_light" tl="A0"/>
    <node id="A1" x="300.00" y="640.00" type="traffic_light" tl="A1"/>
    <node id="A2" x="300.00" y="980.00" type="traffic_light" tl="A2"/>
    <node id="B0" x="640.00" y="300.00" type="traffic_light" tl="B0"/>
    <node id="B1" x="640.00" y="640.00" type="traffic_light" tl="B1"/>
    <node id="B2" x="640.00" y="980.00" type="traffic_light" tl="B2"/>
    <node id="C0" x="980.00" y="300.00" type="traffic_light" tl="C0"/>
    <node id="C1" x="980.00" y="640.00" type="traffic_light" tl="C1"/>
    <node id="C2" x="980.00" y="980.00" type="traffic_light" tl="C2"/>
    <node id="bottom0" x="300.00" y="0.00" type="priority" fringe="outer"/>
    <node id="bottom1" x="640.00" y="0.00" type="priority" fringe="outer"/>
    <node id="bottom2" x="980.00" y="0.00" type="priority" fringe="outer"/>
    <node id="left0" x="0.00" y="300.00" type="priority" fringe="outer"/>
    <node id="left1" x="0.00" y="640.00" type="priority" fringe="outer"/>
    <node id="left2" x="0.00" y="980.00" type="priority" fringe="outer"/>
    <node id="right0" x="1280.00" y="300.00" type="priority" fringe="outer"/>
    <node id="right1" x="1280.00" y="640.00" type="priority" fringe="outer"/>
    <node id="right2" x="1280.00" y="980.00" type="priority" fringe="outer"/>
    <node id="top0" x="300.00" y="1280.00" type="priority" fringe="outer"/>
    <node id="top1" x="640.00" y="1280.00" type="priority" fringe="outer"/>
    <node id="top2" x="980.00" y="1280.00" type="priority" fringe="outer"/>
</nodes>
