<?xml version='1.0' encoding='UTF-8'?>
<additional xmlns:xsi="http://www.w3.org/2001/XMLSchema-instance" xsi:noNamespaceSchemaLocation="http://sumo.dlr.de/xsd/additional_file.xsd">
    <laneAreaDetector file="e2_out.xml" freq="60" friendlyPos="x" id="A0A1_0" lane="A0A1_0" length="50" pos="262.7" />
    <laneAreaDetector file="e2_out.xml" freq="60" friendlyPos="x" id="A0A1_1" lane="A0A1_1" length="50" pos="262.7" />
    <laneAreaDetector file="e2_out.xml" freq="60" friendlyPos="x" id="A0A1_2" lane="A0A1_2" length="50" pos="262.7" />
    <laneAreaDetector file="e2_out.xml" freq="60" friendlyPos="x" id="A0B0_0" lane="A0B0_0" length="50" pos="262.7" />
    <laneAreaDetector file="e2_out.xml" freq="60" friendlyPos="x" id="A0B0_1" lane="A0B0_1" length="50" pos="262.7" />
    <laneAreaDetector file="e2_out.xml" freq="60" friendlyPos="x" id="A0B0_2" lane="A0B0_2" length="50" pos="262.7" />
    <laneAreaDetector file="e2_out.xml" freq="60" friendlyPos="x" id="A0bottom0_0" lane="A0bottom0_0" length="50" pos="236.3" />
    <laneAreaDetector file="e2_out.xml" freq="60" friendlyPos="x" id="A0bottom0_1" lane="A0bottom0_1" length="50" pos="236.3" />
    <laneAreaDetector file="e2_out.xml" freq="60" friendlyPos="x" id="A0bottom0_2" lane="A0bottom0_2" length="50" pos="236.3" />
    <laneAreaDetector file="e2_out.xml" freq="60" friendlyPos="x" id="A0left0_0" lane="A0left0_0" length="50" pos="236.3" />
    <laneAreaDetector file="e2_out.xml" freq="60" friendlyPos="x" id="A0left0_1" lane="A0left0_1" length="50" pos="236.3" />
    <laneAreaDetector file="e2_out.xml" freq="60" friendlyPos="x" id="A0left0_2" lane="A0left0_2" length="50" pos="236.3" />
    <laneAreaDetector file="e2_out.xml" freq="60" friendlyPos="x" id="A1A0_0" lane="A1A0_0" length="50" pos="262.7" />
    <laneAreaDetector file="e2_out.xml" freq="60" friendlyPos="x" id="A1A0_1" lane="A1A0_1" length="50" pos="262.7" />
    <laneAreaDetector file="e2_out.xml" freq="60" friendlyPos="x" id="A1A0_2" lane="A1A0_2" length="50" pos="262.7" />
    <laneAreaDetector file="e2_out.xml" freq="60" friendlyPos="x" id="A1A2_0" lane="A1A2_0" length="50" pos="262.7" />
    <laneAreaDetector file="e2_out.xml" freq="60" friendlyPos="x" id="A1A2_1" lane="A1A2_1" length="50" pos="262.7" />
    <laneAreaDetector file="e2_out.xml" freq="60" friendlyPos="x" id="A1A2_2" lane="A1A2_2" length="50" pos="262.7" />
    <laneAreaDetector file="e2_out.xml" freq="60" friendlyPos="x" id="A1B1_0" lane="A1B1_0" length="50" pos="262.7" />
    <laneAreaDetector file="e2_out.xml" freq="60" friendlyPos="x" id="A1B1_1" lane="A1B1_1" length="50" pos="262.7" />
    <laneAreaDetector file="e2_out.xml" freq="60" friendlyPos="x" id="A1B1_2" lane="A1B1_2" length="50" pos="262.7" />
    <laneAreaDetector file="e2_out.xml" freq="60" friendlyPos="x" id="A1left1_0" lane="A1left1_0" length="50" pos="236.3" />
    <laneAreaDetector file="e2_out.xml" freq="60" friendlyPos="x" id="A1left1_1" lane="A1left1_1" length="50" pos="236.3" />
    <laneAreaDetector file="e2_out.xml" freq="60" friendlyPos="x" id="A1left1_2" lane="A1left1_2" length="50" pos="236.3" />
    <laneAreaDetector file="e2_out.xml" freq="60" friendlyPos="x" id="A2A1_0" lane="A2A1_0" length="50" pos="262.7" />
    <laneAreaDetector file="e2_out.xml" freq="60" friendlyPos="x" id="A2A1_1" lane="A2A1_1" length="50" pos="262.7" />
    <laneAreaDetector file="e2_out.xml" freq="60" friendlyPos="x" id="A2A1_2" lane="A2A1_2" length="50" pos="262.7" />
    <laneAreaDetector file="e2_out.xml" freq="60" friendlyPos="x" id="A2B2_0" lane="A2B2_0" length="50" pos="262.7" />
    <laneAreaDetector file="e2_out.xml" freq="60" friendlyPos="x" id="A2B2_1" lane="A2B2_1" length="50" pos="262.7" />
    <laneAreaDetector file="e2_out.xml" freq="60" friendlyPos="x" id="A2B2_2" lane="A2B2_2" length="50" pos="262.7" />
    <laneAreaDetector file="e2_out.xml" freq="60" friendlyPos="x" id="A2left2_0" lane="A2left2_0" length="50" pos="236.3" />
    <laneAreaDetector file="e2_out.xml" freq="60" friendlyPos="x" id="A2left2_1" lane="A2left2_1" length="50" pos="236.3" />
    <laneAreaDetector file="e2_out.xml" freq="60" friendlyPos="x" id="A2left2_2" lane="A2left2_2" length="50" pos="236.3" />
    <laneAreaDetector file="e2_out.xml" freq="60" friendlyPos="x" id="A2top0_0" lane="A2top0_0" length="50" pos="236.3" />
    <laneAreaDetector file="e2_out.xml" freq="60" friendlyPos="x" id="A2top0_1" lane="A2top0_1" length="50" pos="236.3" />
    <laneAreaDetector file="e2_out.xml" freq="60" friendlyPos="x" id="A2top0_2" lane="A2top0_2" length="50" pos="236.3" />
    <laneAreaDetector file="e2_out.xml" freq="60" friendlyPos="x" id="B0A0_0" lane="B0A0_0" length="50" pos="262.7" />
    <laneAreaDetector file="e2_out.xml" freq="60" friendlyPos="x" id="B0A0_1" lane="B0A0_1" length="50" pos="262.7" />
    <laneAreaDetector file="e2_out.xml" freq="60" friendlyPos="x" id="B0A0_2" lane="B0A0_2" length="50" pos="262.7" />
    <laneAreaDetector file="e2_out.xml" freq="60" friendlyPos="x" id="B0B1_0" lane="B0B1_0" length="50" pos="262.7" />
    <laneAreaDetector file="e2_out.xml" freq="60" friendlyPos="x" id="B0B1_1" lane="B0B1_1" length="50" pos="262.7" />
    <laneAreaDetector file="e2_out.xml" freq="60" friendlyPos="x" id="B0B1_2" lane="B0B1_2" length="50" pos="262.7" />
    <laneAreaDetector file="e2_out.xml" freq="60" friendlyPos="x" id="B0C0_0" lane="B0C0_0" length="50" pos="262.7" />
    <laneAreaDetector file="e2_out.xml" freq="60" friendlyPos="x" id="B0C0_1" lane="B0C0_1" length="50" pos="262.7" />
    <laneAreaDetector file="e2_out.xml" freq="60" friendlyPos="x" id="B0C0_2" lane="B0C0_2" length="50" pos="262.7" />
    <laneAreaDetector file="e2_out.xml" freq="60" friendlyPos="x" id="B0bottom1_0" lane="B0bottom1_0" length="50" pos="236.3" />
    <laneAreaDetector file="e2_out.xml" freq="60" friendlyPos="x" id="B0bottom1_1" lane="B0bottom1_1" length="50" pos="236.3" />
    <laneAreaDetector file="e2_out.xml" freq="60" friendlyPos="x" id="B0bottom1_2" lane="B0bottom1_2" length="50" pos="236.3" />
    <laneAreaDetector file="e2_out.xml" freq="60" friendlyPos="x" id="B1A1_0" lane="B1A1_0" length="50" pos="262.7" />
    <laneAreaDetector file="e2_out.xml" freq="60" friendlyPos="x" id="B1A1_1" lane="B1A1_1" length="50" pos="262.7" />
    <laneAreaDetector file="e2_out.xml" freq="60" friendlyPos="x" id="B1A1_2" lane="B1A1_2" length="50" pos="262.7" />
    <laneAreaDetector file="e2_out.xml" freq="60" friendlyPos="x" id="B1B0_0" lane="B1B0_0" length="50" pos="262.7" />
    <laneAreaDetector file="e2_out.xml" freq="60" friendlyPos="x" id="B1B0_1" lane="B1B0_1" length="50" pos="262.7" />
    <laneAreaDetector file="e2_out.xml" freq="60" friendlyPos="x" id="B1B0_2" lane="B1B0_2" length="50" pos="262.7" />
    <laneAreaDetector file="e2_out.xml" freq="60" friendlyPos="x" id="B1B2_0" lane="B1B2_0" length="50" pos="262.7" />
    <laneAreaDetector file="e2_out.xml" freq="60" friendlyPos="x" id="B1B2_1" lane="B1B2_1" length="50" pos="262.7" />
    <laneAreaDetector file="e2_out.xml" freq="60" friendlyPos="x" id="B1B2_2" lane="B1B2_2" length="50" pos="262.7" />
    <laneAreaDetector file="e2_out.xml" freq="60" friendlyPos="x" id="B1C1_0" lane="B1C1_0" length="50" pos="262.7" />
    <laneAreaDetector file="e2_out.xml" freq="60" friendlyPos="x" id="B1C1_1" lane="B1C1_1" length="50" pos="262.7" />
    <laneAreaDetector file="e2_out.xml" freq="60" friendlyPos="x" id="B1C1_2" lane="B1C1_2" length="50" pos="262.7" />
    <laneAreaDetector file="e2_out.xml" freq="60" friendlyPos="x" id="B2A2_0" lane="B2A2_0" length="50" pos="262.7" />
    <laneAreaDetector file="e2_out.xml" freq="60" friendlyPos="x" id="B2A2_1" lane="B2A2_1" length="50" pos="262.7" />
    <laneAreaDetector file="e2_out.xml" freq="60" friendlyPos="x" id="B2A2_2" lane="B2A2_2" length="50" pos="262.7" />
    <laneAreaDetector file="e2_out.xml" freq="60" friendlyPos="x" id="B2B1_0" lane="B2B1_0" length="50" pos="262.7" />
    <laneAreaDetector file="e2_out.xml" freq="60" friendlyPos="x" id="B2B1_1" lane="B2B1_1" length="50" pos="262.7" />
    <laneAreaDetector file="e2_out.xml" freq="60" friendlyPos="x" id="B2B1_2" lane="B2B1_2" length="50" pos="262.7" />
    <laneAreaDetector file="e2_out.xml" freq="60" friendlyPos="x" id="B2C2_0" lane="B2C2_0" length="50" pos="262.7" />
    <laneAreaDetector file="e2_out.xml" freq="60" friendlyPos="x" id="B2C2_1" lane="B2C2_1" length="50" pos="262.7" />
    <laneAreaDetector file="e2_out.xml" freq="60" friendlyPos="x" id="B2C2_2" lane="B2C2_2" length="50" pos="262.7" />
    <laneAreaDetector file="e2_out.xml" freq="60" friendlyPos="x" id="B2top1_0" lane="B2top1_0" length="50" pos="236.3" />
    <laneAreaDetector file="e2_out.xml" freq="60" friendlyPos="x" id="B2top1_1" lane="B2top1_1" length="50" pos="236.3" />
    <laneAreaDetector file="e2_out.xml" freq="60" friendlyPos="x" id="B2top1_2" lane="B2top1_2" length="50" pos="236.3" />
    <laneAreaDetector file="e2_out.xml" freq="60" friendlyPos="x" id="C0B0_0" lane="C0B0_0" length="50" pos="262.7" />
    <laneAreaDetector file="e2_out.xml" freq="60" friendlyPos="x" id="C0B0_1" lane="C0B0_1" length="50" pos="262.7" />
    <laneAreaDetector file="e2_out.xml" freq="60" friendlyPos="x" id="C0B0_2" lane="C0B0_2" length="50" pos="262.7" />
    <laneAreaDetector file="e2_out.xml" freq="60" friendlyPos="x" id="C0C1_0" lane="C0C1_0" length="50" pos="262.7" />
    <laneAreaDetector file="e2_out.xml" freq="60" friendlyPos="x" id="C0C1_1" lane="C0C1_1" length="50" pos="262.7" />
    <laneAreaDetector file="e2_out.xml" freq="60" friendlyPos="x" id="C0C1_2" lane="C0C1_2" length="50" pos="262.7" />
    <laneAreaDetector file="e2_out.xml" freq="60" friendlyPos="x" id="C0bottom2_0" lane="C0bottom2_0" length="50" pos="236.3" />
    <laneAreaDetector file="e2_out.xml" freq="60" friendlyPos="x" id="C0bottom2_1" lane="C0bottom2_1" length="50" pos="236.3" />
    <laneAreaDetector file="e2_out.xml" freq="60" friendlyPos="x" id="C0bottom2_2" lane="C0bottom2_2" length="50" pos="236.3" />
    <laneAreaDetector file="e2_out.xml" freq="60" friendlyPos="x" id="C0right0_0" lane="C0right0_0" length="50" pos="236.3" />
    <laneAreaDetector file="e2_out.xml" freq="60" friendlyPos="x" id="C0right0_1" lane="C0right0_1" length="50" pos="236.3" />
    <laneAreaDetector file="e2_out.xml" freq="60" friendlyPos="x" id="C0right0_2" lane="C0right0_2" length="50" pos="236.3" />
    <laneAreaDetector file="e2_out.xml" freq="60" friendlyPos="x" id="C1B1_0" lane="C1B1_0" length="50" pos="262.7" />
    <laneAreaDetector file="e2_out.xml" freq="60" friendlyPos="x" id="C1B1_1" lane="C1B1_1" length="50" pos="262.7" />
    <laneAreaDetector file="e2_out.xml" freq="60" friendlyPos="x" id="C1B1_2" lane="C1B1_2" length="50" pos="262.7" />
    <laneAreaDetector file="e2_out.xml" freq="60" friendlyPos="x" id="C1C0_0" lane="C1C0_0" length="50" pos="262.7" />
    <laneAreaDetector file="e2_out.xml" freq="60" friendlyPos="x" id="C1C0_1" lane="C1C0_1" length="50" pos="262.7" />
    <laneAreaDetector file="e2_out.xml" freq="60" friendlyPos="x" id="C1C0_2" lane="C1C0_2" length="50" pos="262.7" />
    <laneAreaDetector file="e2_out.xml" freq="60" friendlyPos="x" id="C1C2_0" lane="C1C2_0" length="50" pos="262.7" />
    <laneAreaDetector file="e2_out.xml" freq="60" friendlyPos="x" id="C1C2_1" lane="C1C2_1" length="50" pos="262.7" />
    <laneAreaDetector file="e2_out.xml" freq="60" friendlyPos="x" id="C1C2_2" lane="C1C2_2" length="50" pos="262.7" />
    <laneAreaDetector file="e2_out.xml" freq="60" friendlyPos="x" id="C1right1_0" lane="C1right1_0" length="50" pos="236.3" />
    <laneAreaDetector file="e2_out.xml" freq="60" friendlyPos="x" id="C1right1_1" lane="C1right1_1" length="50" pos="236.3" />
    <laneAreaDetector file="e2_out.xml" freq="60" friendlyPos="x" id="C1right1_2" lane="C1right1_2" length="50" pos="236.3" />
    <laneAreaDetector file="e2_out.xml" freq="60" friendlyPos="x" id="C2B2_0" lane="C2B2_0" length="50" pos="262.7" />
    <laneAreaDetector file="e2_out.xml" freq="60" friendlyPos="x" id="C2B2_1" lane="C2B2_1" length="50" pos="262.7" />
    <laneAreaDetector file="e2_out.xml" freq="60" friendlyPos="x" id="C2B2_2" lane="C2B2_2" length="50" pos="262.7" />
    <laneAreaDetector file="e2_out.xml" freq="60" friendlyPos="x" id="C2C1_0" lane="C2C1_0" length="50" pos="262.7" />
    <laneAreaDetector file="e2_out.xml" freq="60" friendlyPos="x" id="C2C1_1" lane="C2C1_1" length="50" pos="262.7" />
    <laneAreaDetector file="e2_out.xml" freq="60" friendlyPos="x" id="C2C1_2" lane="C2C1_2" length="50" pos="262.7" />
    <laneAreaDetector file="e2_out.xml" freq="60" friendlyPos="x" id="C2right2_0" lane="C2right2_0" length="50" pos="236.3" />
    <laneAreaDetector file="e2_out.xml" freq="60" friendlyPos="x" id="C2right2_1" lane="C2right2_1" length="50" pos="236.3" />
    <laneAreaDetector file="e2_out.xml" freq="60" friendlyPos="x" id="C2right2_2" lane="C2right2_2" length="50" pos="236.3" />
    <laneAreaDetector file="e2_out.xml" freq="60" friendlyPos="x" id="C2top2_0" lane="C2top2_0" length="50" pos="236.3" />
    <laneAreaDetector file="e2_out.xml" freq="60" friendlyPos="x" id="C2top2_1" lane="C2top2_1" length="50" pos="236.3" />
    <laneAreaDetector file="e2_out.xml" freq="60" friendlyPos="x" id="C2top2_2" lane="C2top2_2" length="50" pos="236.3" />
    <laneAreaDetector file="e2_out.xml" freq="60" friendlyPos="x" id="bottom0A0_0" lane="bottom0A0_0" length="50" pos="236.3" />
    <laneAreaDetector file="e2_out.xml" freq="60" friendlyPos="x" id="bottom0A0_1" lane="bottom0A0_1" length="50" pos="236.3" />
    <laneAreaDetector file="e2_out.xml" freq="60" friendlyPos="x" id="bottom0A0_2" lane="bottom0A0_2" length="50" pos="236.3" />
    <laneAreaDetector file="e2_out.xml" freq="60" friendlyPos="x" id="bottom1B0_0" lane="bottom1B0_0" length="50" pos="236.3" />
    <laneAreaDetector file="e2_out.xml" freq="60" friendlyPos="x" id="bottom1B0_1" lane="bottom1B0_1" length="50" pos="236.3" />
    <laneAreaDetector file="e2_out.xml" freq="60" friendlyPos="x" id="bottom1B0_2" lane="bottom1B0_2" length="50" pos="236.3" />
    <laneAreaDetector file="e2_out.xml" freq="60" friendlyPos="x" id="bottom2C0_0" lane="bottom2C0_0" length="50" pos="236.3" />
    <laneAreaDetector file="e2_out.xml" freq="60" friendlyPos="x" id="bottom2C0_1" lane="bottom2C0_1" length="50" pos="236.3" />
    <laneAreaDetector file="e2_out.xml" freq="60" friendlyPos="x" id="bottom2C0_2" lane="bottom2C0_2" length="50" pos="236.3" />
    <laneAreaDetector file="e2_out.xml" freq="60" friendlyPos="x" id="left0A0_0" lane="left0A0_0" length="50" pos="236.3" />
    <laneAreaDetector file="e2_out.xml" freq="60" friendlyPos="x" id="left0A0_1" lane="left0A0_1" length="50" pos="236.3" />
    <laneAreaDetector file="e2_out.xml" freq="60" friendlyPos="x" id="left0A0_2" lane="left0A0_2" length="50" pos="236.3" />
    <laneAreaDetector file="e2_out.xml" freq="60" friendlyPos="x" id="left1A1_0" lane="left1A1_0" length="50" pos="236.3" />
    <laneAreaDetector file="e2_out.xml" freq="60" friendlyPos="x" id="left1A1_1" lane="left1A1_1" length="50" pos="236.3" />
    <laneAreaDetector file="e2_out.xml" freq="60" friendlyPos="x" id="left1A1_2" lane="left1A1_2" length="50" pos="236.3" />
    <laneAreaDetector file="e2_out.xml" freq="60" friendlyPos="x" id="left2A2_0" lane="left2A2_0" length="50" pos="236.3" />
    <laneAreaDetector file="e2_out.xml" freq="60" friendlyPos="x" id="left2A2_1" lane="left2A2_1" length="50" pos="236.3" />
    <laneAreaDetector file="e2_out.xml" freq="60" friendlyPos="x" id="left2A2_2" lane="left2A2_2" length="50" pos="236.3" />
    <laneAreaDetector file="e2_out.xml" freq="60" friendlyPos="x" id="right0C0_0" lane="right0C0_0" length="50" pos="236.3" />
    <laneAreaDetector file="e2_out.xml" freq="60" friendlyPos="x" id="right0C0_1" lane="right0C0_1" length="50" pos="236.3" />
    <laneAreaDetector file="e2_out.xml" freq="60" friendlyPos="x" id="right0C0_2" lane="right0C0_2" length="50" pos="236.3" />
    <laneAreaDetector file="e2_out.xml" freq="60" friendlyPos="x" id="right1C1_0" lane="right1C1_0" length="50" pos="236.3" />
    <laneAreaDetector file="e2_out.xml" freq="60" friendlyPos="x" id="right1C1_1" lane="right1C1_1" length="50" pos="236.3" />
    <laneAreaDetector file="e2_out.xml" freq="60" friendlyPos="x" id="right1C1_2" lane="right1C1_2" length="50" pos="236.3" />
    <laneAreaDetector file="e2_out.xml" freq="60" friendlyPos="x" id="right2C2_0" lane="right2C2_0" length="50" pos="236.3" />
    <laneAreaDetector file="e2_out.xml" freq="60" friendlyPos="x" id="right2C2_1" lane="right2C2_1" length="50" pos="236.3" />
    <laneAreaDetector file="e2_out.xml" freq="60" friendlyPos="x" id="right2C2_2" lane="right2C2_2" length="50" pos="236.3" />
    <laneAreaDetector file="e2_out.xml" freq="60" friendlyPos="x" id="top0A2_0" lane="top0A2_0" length="50" pos="236.3" />
    <laneAreaDetector file="e2_out.xml" freq="60" friendlyPos="x" id="top0A2_1" lane="top0A2_1" length="50" pos="236.3" />
    <laneAreaDetector file="e2_out.xml" freq="60" friendlyPos="x" id="top0A2_2" lane="top0A2_2" length="50" pos="236.3" />
    <laneAreaDetector file="e2_out.xml" freq="60" friendlyPos="x" id="top1B2_0" lane="top1B2_0" length="50" pos="236.3" />
    <laneAreaDetector file="e2_out.xml" freq="60" friendlyPos="x" id="top1B2_1" lane="top1B2_1" length="50" pos="236.3" />
    <laneAreaDetector file="e2_out.xml" freq="60" friendlyPos="x" id="top1B2_2" lane="top1B2_2" length="50" pos="236.3" />
    <laneAreaDetector file="e2_out.xml" freq="60" friendlyPos="x" id="top2C2_0" lane="top2C2_0" length="50" pos="236.3" />
    <laneAreaDetector file="e2_out.xml" freq="60" friendlyPos="x" id="top2C2_1" lane="top2C2_1" length="50" pos="236.3" />
    <laneAreaDetector file="e2_out.xml" freq="60" friendlyPos="x" id="top2C2_2" lane="top2C2_2" length="50" pos="236.3" />
</additional>
