<?xml version='1.0' encoding='utf-8'?>
<net xmlns:xsi="http://www.w3.org/2001/XMLSchema-instance" version="1.16" junctionCornerDetail="5" limitTurnSpeed="5.50" xsi:noNamespaceSchemaLocation="http://sumo.dlr.de/xsd/net_file.xsd">
    <location netOffset="0.00,0.00" convBoundary="0.00,0.00,1280.00,1280.00" origBoundary="0.00,0.00,1280.00,1280.00" projParameter="!" />
    <edge id=":A0_0" function="internal">
        <lane id=":A0_0_0" index="0" speed="6.51" length="9.03" shape="292.00,313.60 291.65,311.15 290.60,309.40 288.85,308.35 286.40,308.00" />
    </edge>
    <edge id=":A0_1" function="internal">
        <lane id=":A0_1_0" index="0" speed="13.89" length="27.20" shape="292.00,313.60 292.00,286.40" />
        <lane id=":A0_1_1" index="1" speed="13.89" length="27.20" shape="295.20,313.60 295.20,286.40" />
        <lane id=":A0_1_2" index="2" speed="13.89" length="27.20" shape="298.40,313.60 298.40,286.40" />
    </edge>
    <edge id=":A0_4" function="internal">
        <lane id=":A0_4_0" index="0" speed="10.36" length="5.01" shape="298.40,313.60 299.11,308.64" />
    </edge>
    <edge id=":A0_20" function="internal">
        <lane id=":A0_20_0" index="0" speed="10.36" length="19.50" shape="299.11,308.64 299.35,306.95 302.20,302.20 306.95,299.35 313.60,298.40" />
    </edge>
    <edge id=":A0_5" function="internal">
        <lane id=":A0_5_0" index="0" speed="6.51" length="9.03" shape="313.60,308.00 311.15,308.35 309.40,309.40 308.35,311.15 308.00,313.60" />
    </edge>
    <edge id=":A0_6" function="internal">
        <lane id=":A0_6_0" index="0" speed="13.89" length="27.20" shape="313.60,308.00 286.40,308.00" />
        <lane id=":A0_6_1" index="1" speed="13.89" length="27.20" shape="313.60,304.80 286.40,304.80" />
        <lane id=":A0_6_2" index="2" speed="13.89" length="27.20" shape="313.60,301.60 286.40,301.60" />
    </edge>
    <edge id=":A0_9" function="internal">
        <lane id=":A0_9_0" index="0" speed="10.36" length="5.01" shape="313.60,301.60 308.64,300.89" />
    </edge>
    <edge id=":A0_21" function="internal">
        <lane id=":A0_21_0" index="0" speed="10.36" length="19.50" shape="308.64,300.89 306.95,300.65 302.20,297.80 299.35,293.05 298.40,286.40" />
    </edge>
    <edge id=":A0_10" function="internal">
        <lane id=":A0_10_0" index="0" speed="6.51" length="9.03" shape="308.00,286.40 308.35,288.85 309.40,290.60 311.15,291.65 313.60,292.00" />
    </edge>
    <edge id=":A0_11" function="internal">
        <lane id=":A0_11_0" index="0" speed="13.89" length="27.20" shape="308.00,286.40 308.00,313.60" />
        <lane id=":A0_11_1" index="1" speed="13.89" length="27.20" shape="304.80,286.40 304.80,313.60" />
        <lane id=":A0_11_2" index="2" speed="13.89" length="27.20" shape="301.60,286.40 301.60,313.60" />
    </edge>
    <edge id=":A0_14" function="internal">
        <lane id=":A0_14_0" index="0" speed="10.36" length="5.01" shape="301.60,286.40 300.89,291.36" />
    </edge>
    <edge id=":A0_22" function="internal">
        <lane id=":A0_22_0" index="0" speed="10.36" length="19.50" shape="300.89,291.36 300.65,293.05 297.80,297.80 293.05,300.65 286.40,301.60" />
    </edge>
    <edge id=":A0_15" function="internal">
        <lane id=":A0_15_0" index="0" speed="6.51" length="9.03" shape="286.40,292.00 288.85,291.65 290.60,290.60 291.65,288.85 292.00,286.40" />
    </edge>
    <edge id=":A0_16" function="internal">
        <lane id=":A0_16_0" index="0" speed="13.89" length="27.20" shape="286.40,292.00 313.60,292.00" />
        <lane id=":A0_16_1" index="1" speed="13.89" length="27.20" shape="286.40,295.20 313.60,295.20" />
        <lane id=":A0_16_2" index="2" speed="13.89" length="27.20" shape="286.40,298.40 313.60,298.40" />
    </edge>
    <edge id=":A0_19" function="internal">
        <lane id=":A0_19_0" index="0" speed="10.36" length="5.01" shape="286.40,298.40 291.36,299.11" />
    </edge>
    <edge id=":A0_23" function="internal">
        <lane id=":A0_23_0" index="0" speed="10.36" length="19.50" shape="291.36,299.11 293.05,299.35 297.80,302.20 300.65,306.95 301.60,313.60" />
    </edge>
    <edge id=":A1_0" function="internal">
        <lane id=":A1_0_0" index="0" speed="6.51" length="9.03" shape="292.00,653.60 291.65,651.15 290.60,649.40 288.85,648.35 286.40,648.00" />
    </edge>
    <edge id=":A1_1" function="internal">
        <lane id=":A1_1_0" index="0" speed="13.89" length="27.20" shape="292.00,653.60 292.00,626.40" />
        <lane id=":A1_1_1" index="1" speed="13.89" length="27.20" shape="295.20,653.60 295.20,626.40" />
        <lane id=":A1_1_2" index="2" speed="13.89" length="27.20" shape="298.40,653.60 298.40,626.40" />
    </edge>
    <edge id=":A1_4" function="internal">
        <lane id=":A1_4_0" index="0" speed="10.36" length="5.01" shape="298.40,653.60 299.11,648.64" />
    </edge>
    <edge id=":A1_20" function="internal">
        <lane id=":A1_20_0" index="0" speed="10.36" length="19.50" shape="299.11,648.64 299.35,646.95 302.20,642.20 306.95,639.35 313.60,638.40" />
    </edge>
    <edge id=":A1_5" function="internal">
        <lane id=":A1_5_0" index="0" speed="6.51" length="9.03" shape="313.60,648.00 311.15,648.35 309.40,649.40 308.35,651.15 308.00,653.60" />
    </edge>
    <edge id=":A1_6" function="internal">
        <lane id=":A1_6_0" index="0" speed="13.89" length="27.20" shape="313.60,648.00 286.40,648.00" />
        <lane id=":A1_6_1" index="1" speed="13.89" length="27.20" shape="313.60,644.80 286.40,644.80" />
        <lane id=":A1_6_2" index="2" speed="13.89" length="27.20" shape="313.60,641.60 286.40,641.60" />
    </edge>
    <edge id=":A1_9" function="internal">
        <lane id=":A1_9_0" index="0" speed="10.36" length="5.01" shape="313.60,641.60 308.64,640.89" />
    </edge>
    <edge id=":A1_21" function="internal">
        <lane id=":A1_21_0" index="0" speed="10.36" length="19.50" shape="308.64,640.89 306.95,640.65 302.20,637.80 299.35,633.05 298.40,626.40" />
    </edge>
    <edge id=":A1_10" function="internal">
        <lane id=":A1_10_0" index="0" speed="6.51" length="9.03" shape="308.00,626.40 308.35,628.85 309.40,630.60 311.15,631.65 313.60,632.00" />
    </edge>
    <edge id=":A1_11" function="internal">
        <lane id=":A1_11_0" index="0" speed="13.89" length="27.20" shape="308.00,626.40 308.00,653.60" />
        <lane id=":A1_11_1" index="1" speed="13.89" length="27.20" shape="304.80,626.40 304.80,653.60" />
        <lane id=":A1_11_2" index="2" speed="13.89" length="27.20" shape="301.60,626.40 301.60,653.60" />
    </edge>
    <edge id=":A1_14" function="internal">
        <lane id=":A1_14_0" index="0" speed="10.36" length="5.01" shape="301.60,626.40 300.89,631.36" />
    </edge>
    <edge id=":A1_22" function="internal">
        <lane id=":A1_22_0" index="0" speed="10.36" length="19.50" shape="300.89,631.36 300.65,633.05 297.80,637.80 293.05,640.65 286.40,641.60" />
    </edge>
    <edge id=":A1_15" function="internal">
        <lane id=":A1_15_0" index="0" speed="6.51" length="9.03" shape="286.40,632.00 288.85,631.65 290.60,630.60 291.65,628.85 292.00,626.40" />
    </edge>
    <edge id=":A1_16" function="internal">
        <lane id=":A1_16_0" index="0" speed="13.89" length="27.20" shape="286.40,632.00 313.60,632.00" />
        <lane id=":A1_16_1" index="1" speed="13.89" length="27.20" shape="286.40,635.20 313.60,635.20" />
        <lane id=":A1_16_2" index="2" speed="13.89" length="27.20" shape="286.40,638.40 313.60,638.40" />
    </edge>
    <edge id=":A1_19" function="internal">
        <lane id=":A1_19_0" index="0" speed="10.36" length="5.01" shape="286.40,638.40 291.36,639.11" />
    </edge>
    <edge id=":A1_23" function="internal">
        <lane id=":A1_23_0" index="0" speed="10.36" length="19.50" shape="291.36,639.11 293.05,639.35 297.80,642.20 300.65,646.95 301.60,653.60" />
    </edge>
    <edge id=":A2_0" function="internal">
        <lane id=":A2_0_0" index="0" speed="6.51" length="9.03" shape="292.00,993.60 291.65,991.15 290.60,989.40 288.85,988.35 286.40,988.00" />
    </edge>
    <edge id=":A2_1" function="internal">
        <lane id=":A2_1_0" index="0" speed="13.89" length="27.20" shape="292.00,993.60 292.00,966.40" />
        <lane id=":A2_1_1" index="1" speed="13.89" length="27.20" shape="295.20,993.60 295.20,966.40" />
        <lane id=":A2_1_2" index="2" speed="13.89" length="27.20" shape="298.40,993.60 298.40,966.40" />
    </edge>
    <edge id=":A2_4" function="internal">
        <lane id=":A2_4_0" index="0" speed="10.36" length="5.01" shape="298.40,993.60 299.11,988.64" />
    </edge>
    <edge id=":A2_20" function="internal">
        <lane id=":A2_20_0" index="0" speed="10.36" length="19.50" shape="299.11,988.64 299.35,986.95 302.20,982.20 306.95,979.35 313.60,978.40" />
    </edge>
    <edge id=":A2_5" function="internal">
        <lane id=":A2_5_0" index="0" speed="6.51" length="9.03" shape="313.60,988.00 311.15,988.35 309.40,989.40 308.35,991.15 308.00,993.60" />
    </edge>
    <edge id=":A2_6" function="internal">
        <lane id=":A2_6_0" index="0" speed="13.89" length="27.20" shape="313.60,988.00 286.40,988.00" />
        <lane id=":A2_6_1" index="1" speed="13.89" length="27.20" shape="313.60,984.80 286.40,984.80" />
        <lane id=":A2_6_2" index="2" speed="13.89" length="27.20" shape="313.60,981.60 286.40,981.60" />
    </edge>
    <edge id=":A2_9" function="internal">
        <lane id=":A2_9_0" index="0" speed="10.36" length="5.01" shape="313.60,981.60 308.64,980.89" />
    </edge>
    <edge id=":A2_21" function="internal">
        <lane id=":A2_21_0" index="0" speed="10.36" length="19.50" shape="308.64,980.89 306.95,980.65 302.20,977.80 299.35,973.05 298.40,966.40" />
    </edge>
    <edge id=":A2_10" function="internal">
        <lane id=":A2_10_0" index="0" speed="6.51" length="9.03" shape="308.00,966.40 308.35,968.85 309.40,970.60 311.15,971.65 313.60,972.00" />
    </edge>
    <edge id=":A2_11" function="internal">
        <lane id=":A2_11_0" index="0" speed="13.89" length="27.20" shape="308.00,966.40 308.00,993.60" />
        <lane id=":A2_11_1" index="1" speed="13.89" length="27.20" shape="304.80,966.40 304.80,993.60" />
        <lane id=":A2_11_2" index="2" speed="13.89" length="27.20" shape="301.60,966.40 301.60,993.60" />
    </edge>
    <edge id=":A2_14" function="internal">
        <lane id=":A2_14_0" index="0" speed="10.36" length="5.01" shape="301.60,966.40 300.89,971.36" />
    </edge>
    <edge id=":A2_22" function="internal">
        <lane id=":A2_22_0" index="0" speed="10.36" length="19.50" shape="300.89,971.36 300.65,973.05 297.80,977.80 293.05,980.65 286.40,981.60" />
    </edge>
    <edge id=":A2_15" function="internal">
        <lane id=":A2_15_0" index="0" speed="6.51" length="9.03" shape="286.40,972.00 288.85,971.65 290.60,970.60 291.65,968.85 292.00,966.40" />
    </edge>
    <edge id=":A2_16" function="internal">
        <lane id=":A2_16_0" index="0" speed="13.89" length="27.20" shape="286.40,972.00 313.60,972.00" />
        <lane id=":A2_16_1" index="1" speed="13.89" length="27.20" shape="286.40,975.20 313.60,975.20" />
        <lane id=":A2_16_2" index="2" speed="13.89" length="27.20" shape="286.40,978.40 313.60,978.40" />
    </edge>
    <edge id=":A2_19" function="internal">
        <lane id=":A2_19_0" index="0" speed="10.36" length="5.01" shape="286.40,978.40 291.36,979.11" />
    </edge>
    <edge id=":A2_23" function="internal">
        <lane id=":A2_23_0" index="0" speed="10.36" length="19.50" shape="291.36,979.11 293.05,979.35 297.80,982.20 300.65,986.95 301.60,993.60" />
    </edge>
    <edge id=":B0_0" function="internal">
        <lane id=":B0_0_0" index="0" speed="6.51" length="9.03" shape="632.00,313.60 631.65,311.15 630.60,309.40 628.85,308.35 626.40,308.00" />
    </edge>
    <edge id=":B0_1" function="internal">
        <lane id=":B0_1_0" index="0" speed="13.89" length="27.20" shape="632.00,313.60 632.00,286.40" />
        <lane id=":B0_1_1" index="1" speed="13.89" length="27.20" shape="635.20,313.60 635.20,286.40" />
        <lane id=":B0_1_2" index="2" speed="13.89" length="27.20" shape="638.40,313.60 638.40,286.40" />
    </edge>
    <edge id=":B0_4" function="internal">
        <lane id=":B0_4_0" index="0" speed="10.36" length="5.01" shape="638.40,313.60 639.11,308.64" />
    </edge>
    <edge id=":B0_20" function="internal">
        <lane id=":B0_20_0" index="0" speed="10.36" length="19.50" shape="639.11,308.64 639.35,306.95 642.20,302.20 646.95,299.35 653.60,298.40" />
    </edge>
    <edge id=":B0_5" function="internal">
        <lane id=":B0_5_0" index="0" speed="6.51" length="9.03" shape="653.60,308.00 651.15,308.35 649.40,309.40 648.35,311.15 648.00,313.60" />
    </edge>
    <edge id=":B0_6" function="internal">
        <lane id=":B0_6_0" index="0" speed="13.89" length="27.20" shape="653.60,308.00 626.40,308.00" />
        <lane id=":B0_6_1" index="1" speed="13.89" length="27.20" shape="653.60,304.80 626.40,304.80" />
        <lane id=":B0_6_2" index="2" speed="13.89" length="27.20" shape="653.60,301.60 626.40,301.60" />
    </edge>
    <edge id=":B0_9" function="internal">
        <lane id=":B0_9_0" index="0" speed="10.36" length="5.01" shape="653.60,301.60 648.64,300.89" />
    </edge>
    <edge id=":B0_21" function="internal">
        <lane id=":B0_21_0" index="0" speed="10.36" length="19.50" shape="648.64,300.89 646.95,300.65 642.20,297.80 639.35,293.05 638.40,286.40" />
    </edge>
    <edge id=":B0_10" function="internal">
        <lane id=":B0_10_0" index="0" speed="6.51" length="9.03" shape="648.00,286.40 648.35,288.85 649.40,290.60 651.15,291.65 653.60,292.00" />
    </edge>
    <edge id=":B0_11" function="internal">
        <lane id=":B0_11_0" index="0" speed="13.89" length="27.20" shape="648.00,286.40 648.00,313.60" />
        <lane id=":B0_11_1" index="1" speed="13.89" length="27.20" shape="644.80,286.40 644.80,313.60" />
        <lane id=":B0_11_2" index="2" speed="13.89" length="27.20" shape="641.60,286.40 641.60,313.60" />
    </edge>
    <edge id=":B0_14" function="internal">
        <lane id=":B0_14_0" index="0" speed="10.36" length="5.01" shape="641.60,286.40 640.89,291.36" />
    </edge>
    <edge id=":B0_22" function="internal">
        <lane id=":B0_22_0" index="0" speed="10.36" length="19.50" shape="640.89,291.36 640.65,293.05 637.80,297.80 633.05,300.65 626.40,301.60" />
    </edge>
    <edge id=":B0_15" function="internal">
        <lane id=":B0_15_0" index="0" speed="6.51" length="9.03" shape="626.40,292.00 628.85,291.65 630.60,290.60 631.65,288.85 632.00,286.40" />
    </edge>
    <edge id=":B0_16" function="internal">
        <lane id=":B0_16_0" index="0" speed="13.89" length="27.20" shape="626.40,292.00 653.60,292.00" />
        <lane id=":B0_16_1" index="1" speed="13.89" length="27.20" shape="626.40,295.20 653.60,295.20" />
        <lane id=":B0_16_2" index="2" speed="13.89" length="27.20" shape="626.40,298.40 653.60,298.40" />
    </edge>
    <edge id=":B0_19" function="internal">
        <lane id=":B0_19_0" index="0" speed="10.36" length="5.01" shape="626.40,298.40 631.36,299.11" />
    </edge>
    <edge id=":B0_23" function="internal">
        <lane id=":B0_23_0" index="0" speed="10.36" length="19.50" shape="631.36,299.11 633.05,299.35 637.80,302.20 640.65,306.95 641.60,313.60" />
    </edge>
    <edge id=":B1_0" function="internal">
        <lane id=":B1_0_0" index="0" speed="6.51" length="9.03" shape="632.00,653.60 631.65,651.15 630.60,649.40 628.85,648.35 626.40,648.00" />
    </edge>
    <edge id=":B1_1" function="internal">
        <lane id=":B1_1_0" index="0" speed="13.89" length="27.20" shape="632.00,653.60 632.00,626.40" />
        <lane id=":B1_1_1" index="1" speed="13.89" length="27.20" shape="635.20,653.60 635.20,626.40" />
        <lane id=":B1_1_2" index="2" speed="13.89" length="27.20" shape="638.40,653.60 638.40,626.40" />
    </edge>
    <edge id=":B1_4" function="internal">
        <lane id=":B1_4_0" index="0" speed="10.36" length="5.01" shape="638.40,653.60 639.11,648.64" />
    </edge>
    <edge id=":B1_20" function="internal">
        <lane id=":B1_20_0" index="0" speed="10.36" length="19.50" shape="639.11,648.64 639.35,646.95 642.20,642.20 646.95,639.35 653.60,638.40" />
    </edge>
    <edge id=":B1_5" function="internal">
        <lane id=":B1_5_0" index="0" speed="6.51" length="9.03" shape="653.60,648.00 651.15,648.35 649.40,649.40 648.35,651.15 648.00,653.60" />
    </edge>
    <edge id=":B1_6" function="internal">
        <lane id=":B1_6_0" index="0" speed="13.89" length="27.20" shape="653.60,648.00 626.40,648.00" />
        <lane id=":B1_6_1" index="1" speed="13.89" length="27.20" shape="653.60,644.80 626.40,644.80" />
        <lane id=":B1_6_2" index="2" speed="13.89" length="27.20" shape="653.60,641.60 626.40,641.60" />
    </edge>
    <edge id=":B1_9" function="internal">
        <lane id=":B1_9_0" index="0" speed="10.36" length="5.01" shape="653.60,641.60 648.64,640.89" />
    </edge>
    <edge id=":B1_21" function="internal">
        <lane id=":B1_21_0" index="0" speed="10.36" length="19.50" shape="648.64,640.89 646.95,640.65 642.20,637.80 639.35,633.05 638.40,626.40" />
    </edge>
    <edge id=":B1_10" function="internal">
        <lane id=":B1_10_0" index="0" speed="6.51" length="9.03" shape="648.00,626.40 648.35,628.85 649.40,630.60 651.15,631.65 653.60,632.00" />
    </edge>
    <edge id=":B1_11" function="internal">
        <lane id=":B1_11_0" index="0" speed="13.89" length="27.20" shape="648.00,626.40 648.00,653.60" />
        <lane id=":B1_11_1" index="1" speed="13.89" length="27.20" shape="644.80,626.40 644.80,653.60" />
        <lane id=":B1_11_2" index="2" speed="13.89" length="27.20" shape="641.60,626.40 641.60,653.60" />
    </edge>
    <edge id=":B1_14" function="internal">
        <lane id=":B1_14_0" index="0" speed="10.36" length="5.01" shape="641.60,626.40 640.89,631.36" />
    </edge>
    <edge id=":B1_22" function="internal">
        <lane id=":B1_22_0" index="0" speed="10.36" length="19.50" shape="640.89,631.36 640.65,633.05 637.80,637.80 633.05,640.65 626.40,641.60" />
    </edge>
    <edge id=":B1_15" function="internal">
        <lane id=":B1_15_0" index="0" speed="6.51" length="9.03" shape="626.40,632.00 628.85,631.65 630.60,630.60 631.65,628.85 632.00,626.40" />
    </edge>
    <edge id=":B1_16" function="internal">
        <lane id=":B1_16_0" index="0" speed="13.89" length="27.20" shape="626.40,632.00 653.60,632.00" />
        <lane id=":B1_16_1" index="1" speed="13.89" length="27.20" shape="626.40,635.20 653.60,635.20" />
        <lane id=":B1_16_2" index="2" speed="13.89" length="27.20" shape="626.40,638.40 653.60,638.40" />
    </edge>
    <edge id=":B1_19" function="internal">
        <lane id=":B1_19_0" index="0" speed="10.36" length="5.01" shape="626.40,638.40 631.36,639.11" />
    </edge>
    <edge id=":B1_23" function="internal">
        <lane id=":B1_23_0" index="0" speed="10.36" length="19.50" shape="631.36,639.11 633.05,639.35 637.80,642.20 640.65,646.95 641.60,653.60" />
    </edge>
    <edge id=":B2_0" function="internal">
        <lane id=":B2_0_0" index="0" speed="6.51" length="9.03" shape="632.00,993.60 631.65,991.15 630.60,989.40 628.85,988.35 626.40,988.00" />
    </edge>
    <edge id=":B2_1" function="internal">
        <lane id=":B2_1_0" index="0" speed="13.89" length="27.20" shape="632.00,993.60 632.00,966.40" />
        <lane id=":B2_1_1" index="1" speed="13.89" length="27.20" shape="635.20,993.60 635.20,966.40" />
        <lane id=":B2_1_2" index="2" speed="13.89" length="27.20" shape="638.40,993.60 638.40,966.40" />
    </edge>
    <edge id=":B2_4" function="internal">
        <lane id=":B2_4_0" index="0" speed="10.36" length="5.01" shape="638.40,993.60 639.11,988.64" />
    </edge>
    <edge id=":B2_20" function="internal">
        <lane id=":B2_20_0" index="0" speed="10.36" length="19.50" shape="639.11,988.64 639.35,986.95 642.20,982.20 646.95,979.35 653.60,978.40" />
    </edge>
    <edge id=":B2_5" function="internal">
        <lane id=":B2_5_0" index="0" speed="6.51" length="9.03" shape="653.60,988.00 651.15,988.35 649.40,989.40 648.35,991.15 648.00,993.60" />
    </edge>
    <edge id=":B2_6" function="internal">
        <lane id=":B2_6_0" index="0" speed="13.89" length="27.20" shape="653.60,988.00 626.40,988.00" />
        <lane id=":B2_6_1" index="1" speed="13.89" length="27.20" shape="653.60,984.80 626.40,984.80" />
        <lane id=":B2_6_2" index="2" speed="13.89" length="27.20" shape="653.60,981.60 626.40,981.60" />
    </edge>
    <edge id=":B2_9" function="internal">
        <lane id=":B2_9_0" index="0" speed="10.36" length="5.01" shape="653.60,981.60 648.64,980.89" />
    </edge>
    <edge id=":B2_21" function="internal">
        <lane id=":B2_21_0" index="0" speed="10.36" length="19.50" shape="648.64,980.89 646.95,980.65 642.20,977.80 639.35,973.05 638.40,966.40" />
    </edge>
    <edge id=":B2_10" function="internal">
        <lane id=":B2_10_0" index="0" speed="6.51" length="9.03" shape="648.00,966.40 648.35,968.85 649.40,970.60 651.15,971.65 653.60,972.00" />
    </edge>
    <edge id=":B2_11" function="internal">
        <lane id=":B2_11_0" index="0" speed="13.89" length="27.20" shape="648.00,966.40 648.00,993.60" />
        <lane id=":B2_11_1" index="1" speed="13.89" length="27.20" shape="644.80,966.40 644.80,993.60" />
        <lane id=":B2_11_2" index="2" speed="13.89" length="27.20" shape="641.60,966.40 641.60,993.60" />
    </edge>
    <edge id=":B2_14" function="internal">
        <lane id=":B2_14_0" index="0" speed="10.36" length="5.01" shape="641.60,966.40 640.89,971.36" />
    </edge>
    <edge id=":B2_22" function="internal">
        <lane id=":B2_22_0" index="0" speed="10.36" length="19.50" shape="640.89,971.36 640.65,973.05 637.80,977.80 633.05,980.65 626.40,981.60" />
    </edge>
    <edge id=":B2_15" function="internal">
        <lane id=":B2_15_0" index="0" speed="6.51" length="9.03" shape="626.40,972.00 628.85,971.65 630.60,970.60 631.65,968.85 632.00,966.40" />
    </edge>
    <edge id=":B2_16" function="internal">
        <lane id=":B2_16_0" index="0" speed="13.89" length="27.20" shape="626.40,972.00 653.60,972.00" />
        <lane id=":B2_16_1" index="1" speed="13.89" length="27.20" shape="626.40,975.20 653.60,975.20" />
        <lane id=":B2_16_2" index="2" speed="13.89" length="27.20" shape="626.40,978.40 653.60,978.40" />
    </edge>
    <edge id=":B2_19" function="internal">
        <lane id=":B2_19_0" index="0" speed="10.36" length="5.01" shape="626.40,978.40 631.36,979.11" />
    </edge>
    <edge id=":B2_23" function="internal">
        <lane id=":B2_23_0" index="0" speed="10.36" length="19.50" shape="631.36,979.11 633.05,979.35 637.80,982.20 640.65,986.95 641.60,993.60" />
    </edge>
    <edge id=":C0_0" function="internal">
        <lane id=":C0_0_0" index="0" speed="6.51" length="9.03" shape="972.00,313.60 971.65,311.15 970.60,309.40 968.85,308.35 966.40,308.00" />
    </edge>
    <edge id=":C0_1" function="internal">
        <lane id=":C0_1_0" index="0" speed="13.89" length="27.20" shape="972.00,313.60 972.00,286.40" />
        <lane id=":C0_1_1" index="1" speed="13.89" length="27.20" shape="975.20,313.60 975.20,286.40" />
        <lane id=":C0_1_2" index="2" speed="13.89" length="27.20" shape="978.40,313.60 978.40,286.40" />
    </edge>
    <edge id=":C0_4" function="internal">
        <lane id=":C0_4_0" index="0" speed="10.36" length="5.01" shape="978.40,313.60 979.11,308.64" />
    </edge>
    <edge id=":C0_20" function="internal">
        <lane id=":C0_20_0" index="0" speed="10.36" length="19.50" shape="979.11,308.64 979.35,306.95 982.20,302.20 986.95,299.35 993.60,298.40" />
    </edge>
    <edge id=":C0_5" function="internal">
        <lane id=":C0_5_0" index="0" speed="6.51" length="9.03" shape="993.60,308.00 991.15,308.35 989.40,309.40 988.35,311.15 988.00,313.60" />
    </edge>
    <edge id=":C0_6" function="internal">
        <lane id=":C0_6_0" index="0" speed="13.89" length="27.20" shape="993.60,308.00 966.40,308.00" />
        <lane id=":C0_6_1" index="1" speed="13.89" length="27.20" shape="993.60,304.80 966.40,304.80" />
        <lane id=":C0_6_2" index="2" speed="13.89" length="27.20" shape="993.60,301.60 966.40,301.60" />
    </edge>
    <edge id=":C0_9" function="internal">
        <lane id=":C0_9_0" index="0" speed="10.36" length="5.01" shape="993.60,301.60 988.64,300.89" />
    </edge>
    <edge id=":C0_21" function="internal">
        <lane id=":C0_21_0" index="0" speed="10.36" length="19.50" shape="988.64,300.89 986.95,300.65 982.20,297.80 979.35,293.05 978.40,286.40" />
    </edge>
    <edge id=":C0_10" function="internal">
        <lane id=":C0_10_0" index="0" speed="6.51" length="9.03" shape="988.00,286.40 988.35,288.85 989.40,290.60 991.15,291.65 993.60,292.00" />
    </edge>
    <edge id=":C0_11" function="internal">
        <lane id=":C0_11_0" index="0" speed="13.89" length="27.20" shape="988.00,286.40 988.00,313.60" />
        <lane id=":C0_11_1" index="1" speed="13.89" length="27.20" shape="984.80,286.40 984.80,313.60" />
        <lane id=":C0_11_2" index="2" speed="13.89" length="27.20" shape="981.60,286.40 981.60,313.60" />
    </edge>
    <edge id=":C0_14" function="internal">
        <lane id=":C0_14_0" index="0" speed="10.36" length="5.01" shape="981.60,286.40 980.89,291.36" />
    </edge>
    <edge id=":C0_22" function="internal">
        <lane id=":C0_22_0" index="0" speed="10.36" length="19.50" shape="980.89,291.36 980.65,293.05 977.80,297.80 973.05,300.65 966.40,301.60" />
    </edge>
    <edge id=":C0_15" function="internal">
        <lane id=":C0_15_0" index="0" speed="6.51" length="9.03" shape="966.40,292.00 968.85,291.65 970.60,290.60 971.65,288.85 972.00,286.40" />
    </edge>
    <edge id=":C0_16" function="internal">
        <lane id=":C0_16_0" index="0" speed="13.89" length="27.20" shape="966.40,292.00 993.60,292.00" />
        <lane id=":C0_16_1" index="1" speed="13.89" length="27.20" shape="966.40,295.20 993.60,295.20" />
        <lane id=":C0_16_2" index="2" speed="13.89" length="27.20" shape="966.40,298.40 993.60,298.40" />
    </edge>
    <edge id=":C0_19" function="internal">
        <lane id=":C0_19_0" index="0" speed="10.36" length="5.01" shape="966.40,298.40 971.36,299.11" />
    </edge>
    <edge id=":C0_23" function="internal">
        <lane id=":C0_23_0" index="0" speed="10.36" length="19.50" shape="971.36,299.11 973.05,299.35 977.80,302.20 980.65,306.95 981.60,313.60" />
    </edge>
    <edge id=":C1_0" function="internal">
        <lane id=":C1_0_0" index="0" speed="6.51" length="9.03" shape="972.00,653.60 971.65,651.15 970.60,649.40 968.85,648.35 966.40,648.00" />
    </edge>
    <edge id=":C1_1" function="internal">
        <lane id=":C1_1_0" index="0" speed="13.89" length="27.20" shape="972.00,653.60 972.00,626.40" />
        <lane id=":C1_1_1" index="1" speed="13.89" length="27.20" shape="975.20,653.60 975.20,626.40" />
        <lane id=":C1_1_2" index="2" speed="13.89" length="27.20" shape="978.40,653.60 978.40,626.40" />
    </edge>
    <edge id=":C1_4" function="internal">
        <lane id=":C1_4_0" index="0" speed="10.36" length="5.01" shape="978.40,653.60 979.11,648.64" />
    </edge>
    <edge id=":C1_20" function="internal">
        <lane id=":C1_20_0" index="0" speed="10.36" length="19.50" shape="979.11,648.64 979.35,646.95 982.20,642.20 986.95,639.35 993.60,638.40" />
    </edge>
    <edge id=":C1_5" function="internal">
        <lane id=":C1_5_0" index="0" speed="6.51" length="9.03" shape="993.60,648.00 991.15,648.35 989.40,649.40 988.35,651.15 988.00,653.60" />
    </edge>
    <edge id=":C1_6" function="internal">
        <lane id=":C1_6_0" index="0" speed="13.89" length="27.20" shape="993.60,648.00 966.40,648.00" />
        <lane id=":C1_6_1" index="1" speed="13.89" length="27.20" shape="993.60,644.80 966.40,644.80" />
        <lane id=":C1_6_2" index="2" speed="13.89" length="27.20" shape="993.60,641.60 966.40,641.60" />
    </edge>
    <edge id=":C1_9" function="internal">
        <lane id=":C1_9_0" index="0" speed="10.36" length="5.01" shape="993.60,641.60 988.64,640.89" />
    </edge>
    <edge id=":C1_21" function="internal">
        <lane id=":C1_21_0" index="0" speed="10.36" length="19.50" shape="988.64,640.89 986.95,640.65 982.20,637.80 979.35,633.05 978.40,626.40" />
    </edge>
    <edge id=":C1_10" function="internal">
        <lane id=":C1_10_0" index="0" speed="6.51" length="9.03" shape="988.00,626.40 988.35,628.85 989.40,630.60 991.15,631.65 993.60,632.00" />
    </edge>
    <edge id=":C1_11" function="internal">
        <lane id=":C1_11_0" index="0" speed="13.89" length="27.20" shape="988.00,626.40 988.00,653.60" />
        <lane id=":C1_11_1" index="1" speed="13.89" length="27.20" shape="984.80,626.40 984.80,653.60" />
        <lane id=":C1_11_2" index="2" speed="13.89" length="27.20" shape="981.60,626.40 981.60,653.60" />
    </edge>
    <edge id=":C1_14" function="internal">
        <lane id=":C1_14_0" index="0" speed="10.36" length="5.01" shape="981.60,626.40 980.89,631.36" />
    </edge>
    <edge id=":C1_22" function="internal">
        <lane id=":C1_22_0" index="0" speed="10.36" length="19.50" shape="980.89,631.36 980.65,633.05 977.80,637.80 973.05,640.65 966.40,641.60" />
    </edge>
    <edge id=":C1_15" function="internal">
        <lane id=":C1_15_0" index="0" speed="6.51" length="9.03" shape="966.40,632.00 968.85,631.65 970.60,630.60 971.65,628.85 972.00,626.40" />
    </edge>
    <edge id=":C1_16" function="internal">
        <lane id=":C1_16_0" index="0" speed="13.89" length="27.20" shape="966.40,632.00 993.60,632.00" />
        <lane id=":C1_16_1" index="1" speed="13.89" length="27.20" shape="966.40,635.20 993.60,635.20" />
        <lane id=":C1_16_2" index="2" speed="13.89" length="27.20" shape="966.40,638.40 993.60,638.40" />
    </edge>
    <edge id=":C1_19" function="internal">