<?xml version='1.0' encoding='utf-8'?>
<net xmlns:xsi="http://www.w3.org/2001/XMLSchema-instance" version="1.16" junctionCornerDetail="5" limitTurnSpeed="5.50" xsi:noNamespaceSchemaLocation="http://sumo.dlr.de/xsd/net_file.xsd">

    <location netOffset="0.00,0.00" convBoundary="0.00,0.00,1280.00,1280.00" origBoundary="0.00,0.00,1280.00,1280.00" projParameter="!" />

    <edge id=":A0_0" function="internal">
        <lane id=":A0_0_0" index="0" speed="6.51" length="9.03" shape="292.00,313.60 291.65,311.15 290.60,309.40 288.85,308.35 286.40,308.00" />
        <lane id=":A0_0_1" index="1" speed="7.33" length="11.73" shape="292.00,313.60 291.65,309.75 290.60,307.00 288.85,305.35 286.40,304.80" />
        <lane id=":A0_0_2" index="2" speed="8.10" length="14.57" shape="292.00,313.60 291.65,308.35 290.60,304.60 288.85,302.35 286.40,301.60" />
    </edge>
    <edge id=":A0_3" function="internal">
        <lane id=":A0_3_0" index="0" speed="13.89" length="27.37" shape="295.20,313.60 294.70,305.50 293.60,300.00 292.50,294.50 292.00,286.40" />
        <lane id=":A0_3_1" index="1" speed="13.89" length="27.37" shape="295.20,313.60 295.20,286.40" />
        <lane id=":A0_3_2" index="2" speed="13.89" length="27.37" shape="295.20,313.60 295.70,305.50 296.80,300.00 297.90,294.50 298.40,286.40" />
    </edge>
    <edge id=":A0_6" function="internal">
        <lane id=":A0_6_0" index="0" speed="11.39" length="29.85" shape="298.40,313.60 299.35,304.15 302.20,297.40 306.95,293.35 313.60,292.00" />
        <lane id=":A0_6_1" index="1" speed="10.88" length="27.14" shape="298.40,313.60 299.35,305.55 302.20,299.80 306.95,296.35 313.60,295.20" />
        <lane id=":A0_6_2" index="2" speed="10.36" length="24.51" shape="298.40,313.60 299.35,306.95 302.20,302.20 306.95,299.35 313.60,298.40" />
    </edge>
    <edge id=":A0_9" function="internal">
        <lane id=":A0_9_0" index="0" speed="6.51" length="9.03" shape="313.60,308.00 311.15,308.35 309.40,309.40 308.35,311.15 308.00,313.60" />
        <lane id=":A0_9_1" index="1" speed="7.33" length="11.73" shape="313.60,308.00 309.75,308.35 307.00,309.40 305.35,311.15 304.80,313.60" />
        <lane id=":A0_9_2" index="2" speed="8.10" length="14.57" shape="313.60,308.00 308.35,308.35 304.60,309.40 302.35,311.15 301.60,313.60" />
    </edge>
    <edge id=":A0_12" function="internal">
        <lane id=":A0_12_0" index="0" speed="13.89" length="27.37" shape="313.60,304.80 305.50,305.30 300.00,306.40 294.50,307.50 286.40,308.00" />
        <lane id=":A0_12_1" index="1" speed="13.89" length="27.37" shape="313.60,304.80 286.40,304.80" />
        <lane id=":A0_12_2" index="2" speed="13.89" length="27.37" shape="313.60,304.80 305.50,304.30 300.00,303.20 294.50,302.10 286.40,301.60" />
    </edge>
    <edge id=":A0_15" function="internal">
        <lane id=":A0_15_0" index="0" speed="11.39" length="29.85" shape="313.60,301.60 304.15,300.65 297.40,297.80 293.35,293.05 292.00,286.40" />
        <lane id=":A0_15_1" index="1" speed="10.88" length="27.14" shape="313.60,301.60 305.55,300.65 299.80,297.80 296.35,293.05 295.20,286.40" />
        <lane id=":A0_15_2" index="2" speed="10.36" length="24.51" shape="313.60,301.60 306.95,300.65 302.20,297.80 299.35,293.05 298.40,286.40" />
    </edge>
    <edge id=":A0_18" function="internal">
        <lane id=":A0_18_0" index="0" speed="6.51" length="9.03" shape="308.00,286.40 308.35,288.85 309.40,290.60 311.15,291.65 313.60,292.00" />
        <lane id=":A0_18_1" index="1" speed="7.33" length="11.73" shape="308.00,286.40 308.35,290.25 309.40,293.00 311.15,294.65 313.60,295.20" />
        <lane id=":A0_18_2" index="2" speed="8.10" length="14.57" shape="308.00,286.40 308.35,291.65 309.40,295.40 311.15,297.65 313.60,298.40" />
    </edge>
    <edge id=":A0_21" function="internal">
        <lane id=":A0_21_0" index="0" speed="13.89" length="27.37" shape="304.80,286.40 305.30,294.50 306.40,300.00 307.50,305.50 308.00,313.60" />
        <lane id=":A0_21_1" index="1" speed="13.89" length="27.37" shape="304.80,286.40 304.80,313.60" />
        <lane id=":A0_21_2" index="2" speed="13.89" length="27.37" shape="304.80,286.40 304.30,294.50 303.20,300.00 302.10,305.50 301.60,313.60" />
    </edge>
    <edge id=":A0_24" function="internal">
        <lane id=":A0_24_0" index="0" speed="11.39" length="29.85" shape="301.60,286.40 300.65,295.85 297.80,302.60 293.05,306.65 286.40,308.00" />
        <lane id=":A0_24_1" index="1" speed="10.88" length="27.14" shape="301.60,286.40 300.65,294.45 297.80,300.20 293.05,303.65 286.40,304.80" />
        <lane id=":A0_24_2" index="2" speed="10.36" length="24.51" shape="301.60,286.40 300.65,293.05 297.80,297.80 293.05,300.65 286.40,301.60" />
    </edge>
    <edge id=":A0_27" function="internal">
        <lane id=":A0_27_0" index="0" speed="6.51" length="9.03" shape="286.40,292.00 288.85,291.65 290.60,290.60 291.65,288.85 292.00,286.40" />
        <lane id=":A0_27_1" index="1" speed="7.33" length="11.73" shape="286.40,292.00 290.25,291.65 293.00,290.60 294.65,288.85 295.20,286.40" />
        <lane id=":A0_27_2" index="2" speed="8.10" length="14.57" shape="286.40,292.00 291.65,291.65 295.40,290.60 297.65,288.85 298.40,286.40" />
    </edge>
    <edge id=":A0_30" function="internal">
        <lane id=":A0_30_0" index="0" speed="13.89" length="27.37" shape="286.40,295.20 294.50,294.70 300.00,293.60 305.50,292.50 313.60,292.00" />
        <lane id=":A0_30_1" index="1" speed="13.89" length="27.37" shape="286.40,295.20 313.60,295.20" />
        <lane id=":A0_30_2" index="2" speed="13.89" length="27.37" shape="286.40,295.20 294.50,295.70 300.00,296.80 305.50,297.90 313.60,298.40" />
    </edge>
    <edge id=":A0_33" function="internal">
        <lane id=":A0_33_0" index="0" speed="11.39" length="29.85" shape="286.40,298.40 295.85,299.35 302.60,302.20 306.65,306.95 308.00,313.60" />
        <lane id=":A0_33_1" index="1" speed="10.88" length="27.14" shape="286.40,298.40 294.45,299.35 300.20,302.20 303.65,306.95 304.80,313.60" />
        <lane id=":A0_33_2" index="2" speed="10.36" length="24.51" shape="286.40,298.40 293.05,299.35 297.80,302.20 300.65,306.95 301.60,313.60" />
    </edge>
    <edge id=":A1_0" function="internal">
        <lane id=":A1_0_0" index="0" speed="6.51" length="9.03" shape="292.00,653.60 291.65,651.15 290.60,649.40 288.85,648.35 286.40,648.00" />
        <lane id=":A1_0_1" index="1" speed="7.33" length="11.73" shape="292.00,653.60 291.65,649.75 290.60,647.00 288.85,645.35 286.40,644.80" />
        <lane id=":A1_0_2" index="2" speed="8.10" length="14.57" shape="292.00,653.60 291.65,648.35 290.60,644.60 288.85,642.35 286.40,641.60" />
    </edge>
    <edge id=":A1_3" function="internal">
        <lane id=":A1_3_0" index="0" speed="13.89" length="27.37" shape="295.20,653.60 294.70,645.50 293.60,640.00 292.50,634.50 292.00,626.40" />
        <lane id=":A1_3_1" index="1" speed="13.89" length="27.37" shape="295.20,653.60 295.20,626.40" />
        <lane id=":A1_3_2" index="2" speed="13.89" length="27.37" shape="295.20,653.60 295.70,645.50 296.80,640.00 297.90,634.50 298.40,626.40" />
    </edge>
    <edge id=":A1_6" function="internal">
        <lane id=":A1_6_0" index="0" speed="11.39" length="29.85" shape="298.40,653.60 299.35,644.15 302.20,637.40 306.95,633.35 313.60,632.00" />
        <lane id=":A1_6_1" index="1" speed="10.88" length="27.14" shape="298.40,653.60 299.35,645.55 302.20,639.80 306.95,636.35 313.60,635.20" />
        <lane id=":A1_6_2" index="2" speed="10.36" length="24.51" shape="298.40,653.60 299.35,646.95 302.20,642.20 306.95,639.35 313.60,638.40" />
    </edge>
    <edge id=":A1_9" function="internal">
        <lane id=":A1_9_0" index="0" speed="6.51" length="9.03" shape="313.60,648.00 311.15,648.35 309.40,649.40 308.35,651.15 308.00,653.60" />
        <lane id=":A1_9_1" index="1" speed="7.33" length="11.73" shape="313.60,648.00 309.75,648.35 307.00,649.40 305.35,651.15 304.80,653.60" />
        <lane id=":A1_9_2" index="2" speed="8.10" length="14.57" shape="313.60,648.00 308.35,648.35 304.60,649.40 302.35,651.15 301.60,653.60" />
    </edge>
    <edge id=":A1_12" function="internal">
        <lane id=":A1_12_0" index="0" speed="13.89" length="27.37" shape="313.60,644.80 305.50,645.30 300.00,646.40 294.50,647.50 286.40,648.00" />
        <lane id=":A1_12_1" index="1" speed="13.89" length="27.37" shape="313.60,644.80 286.40,644.80" />
        <lane id=":A1_12_2" index="2" speed="13.89" length="27.37" shape="313.60,644.80 305.50,644.30 300.00,643.20 294.50,642.10 286.40,641.60" />
    </edge>
    <edge id=":A1_15" function="internal">
        <lane id=":A1_15_0" index="0" speed="11.39" length="29.85" shape="313.60,641.60 304.15,640.65 297.40,637.80 293.35,633.05 292.00,626.40" />
        <lane id=":A1_15_1" index="1" speed="10.88" length="27.14" shape="313.60,641.60 305.55,640.65 299.80,637.80 296.35,633.05 295.20,626.40" />
        <lane id=":A1_15_2" index="2" speed="10.36" length="24.51" shape="313.60,641.60 306.95,640.65 302.20,637.80 299.35,633.05 298.40,626.40" />
    </edge>
    <edge id=":A1_18" function="internal">
        <lane id=":A1_18_0" index="0" speed="6.51" length="9.03" shape="308.00,626.40 308.35,628.85 309.40,630.60 311.15,631.65 313.60,632.00" />
        <lane id=":A1_18_1" index="1" speed="7.33" length="11.73" shape="308.00,626.40 308.35,630.25 309.40,633.00 311.15,634.65 313.60,635.20" />
        <lane id=":A1_18_2" index="2" speed="8.10" length="14.57" shape="308.00,626.40 308.35,631.65 309.40,635.40 311.15,637.65 313.60,638.40" />
    </edge>
    <edge id=":A1_21" function="internal">
        <lane id=":A1_21_0" index="0" speed="13.89" length="27.37" shape="304.80,626.40 305.30,634.50 306.40,640.00 307.50,645.50 308.00,653.60" />
        <lane id=":A1_21_1" index="1" speed="13.89" length="27.37" shape="304.80,626.40 304.80,653.60" />
        <lane id=":A1_21_2" index="2" speed="13.89" length="27.37" shape="304.80,626.40 304.30,634.50 303.20,640.00 302.10,645.50 301.60,653.60" />
    </edge>
    <edge id=":A1_24" function="internal">
        <lane id=":A1_24_0" index="0" speed="11.39" length="29.85" shape="301.60,626.40 300.65,635.85 297.80,642.60 293.05,646.65 286.40,648.00" />
        <lane id=":A1_24_1" index="1" speed="10.88" length="27.14" shape="301.60,626.40 300.65,634.45 297.80,640.20 293.05,643.65 286.40,644.80" />
        <lane id=":A1_24_2" index="2" speed="10.36" length="24.51" shape="301.60,626.40 300.65,633.05 297.80,637.80 293.05,640.65 286.40,641.60" />
    </edge>
    <edge id=":A1_27" function="internal">
        <lane id=":A1_27_0" index="0" speed="6.51" length="9.03" shape="286.40,632.00 288.85,631.65 290.60,630.60 291.65,628.85 292.00,626.40" />
        <lane id=":A1_27_1" index="1" speed="7.33" length="11.73" shape="286.40,632.00 290.25,631.65 293.00,630.60 294.65,628.85 295.20,626.40" />
        <lane id=":A1_27_2" index="2" speed="8.10" length="14.57" shape="286.40,632.00 291.65,631.65 295.40,630.60 297.65,628.85 298.40,626.40" />
    </edge>
    <edge id=":A1_30" function="internal">
        <lane id=":A1_30_0" index="0" speed="13.89" length="27.37" shape="286.40,635.20 294.50,634.70 300.00,633.60 305.50,632.50 313.60,632.00" />
        <lane id=":A1_30_1" index="1" speed="13.89" length="27.37" shape="286.40,635.20 313.60,635.20" />
        <lane id=":A1_30_2" index="2" speed="13.89" length="27.37" shape="286.40,635.20 294.50,635.70 300.00,636.80 305.50,637.90 313.60,638.40" />
    </edge>
    <edge id=":A1_33" function="internal">
        <lane id=":A1_33_0" index="0" speed="11.39" length="29.85" shape="286.40,638.40 295.85,639.35 302.60,642.20 306.65,646.95 308.00,653.60" />
        <lane id=":A1_33_1" index="1" speed="10.88" length="27.14" shape="286.40,638.40 294.45,639.35 300.20,642.20 303.65,646.95 304.80,653.60" />
        <lane id=":A1_33_2" index="2" speed="10.36" length="24.51" shape="286.40,638.40 293.05,639.35 297.80,642.20 300.65,646.95 301.60,653.60" />
    </edge>
    <edge id=":A2_0" function="internal">
        <lane id=":A2_0_0" index="0" speed="6.51" length="9.03" shape="292.00,993.60 291.65,991.15 290.60,989.40 288.85,988.35 286.40,988.00" />
        <lane id=":A2_0_1" index="1" speed="7.33" length="11.73" shape="292.00,993.60 291.65,989.75 290.60,987.00 288.85,985.35 286.40,984.80" />
        <lane id=":A2_0_2" index="2" speed="8.10" length="14.57" shape="292.00,993.60 291.65,988.35 290.60,984.60 288.85,982.35 286.40,981.60" />
    </edge>
    <edge id=":A2_3" function="internal">
        <lane id=":A2_3_0" index="0" speed="13.89" length="27.37" shape="295.20,993.60 294.70,985.50 293.60,980.00 292.50,974.50 292.00,966.40" />
        <lane id=":A2_3_1" index="1" speed="13.89" length="27.37" shape="295.20,993.60 295.20,966.40" />
        <lane id=":A2_3_2" index="2" speed="13.89" length="27.37" shape="295.20,993.60 295.70,985.50 296.80,980.00 297.90,974.50 298.40,966.40" />
    </edge>
    <edge id=":A2_6" function="internal">
        <lane id=":A2_6_0" index="0" speed="11.39" length="29.85" shape="298.40,993.60 299.35,984.15 302.20,977.40 306.95,973.35 313.60,972.00" />
        <lane id=":A2_6_1" index="1" speed="10.88" length="27.14" shape="298.40,993.60 299.35,985.55 302.20,979.80 306.95,976.35 313.60,975.20" />
        <lane id=":A2_6_2" index="2" speed="10.36" length="24.51" shape="298.40,993.60 299.35,986.95 302.20,982.20 306.95,979.35 313.60,978.40" />
    </edge>
    <edge id=":A2_9" function="internal">
        <lane id=":A2_9_0" index="0" speed="6.51" length="9.03" shape="313.60,988.00 311.15,988.35 309.40,989.40 308.35,991.15 308.00,993.60" />
        <lane id=":A2_9_1" index="1" speed="7.33" length="11.73" shape="313.60,988.00 309.75,988.35 307.00,989.40 305.35,991.15 304.80,993.60" />
        <lane id=":A2_9_2" index="2" speed="8.10" length="14.57" shape="313.60,988.00 308.35,988.35 304.60,989.40 302.35,991.15 301.60,993.60" />
    </edge>
    <edge id=":A2_12" function="internal">
        <lane id=":A2_12_0" index="0" speed="13.89" length="27.37" shape="313.60,984.80 305.50,985.30 300.00,986.40 294.50,987.50 286.40,988.00" />
        <lane id=":A2_12_1" index="1" speed="13.89" length="27.37" shape="313.60,984.80 286.40,984.80" />
        <lane id=":A2_12_2" index="2" speed="13.89" length="27.37" shape="313.60,984.80 305.50,984.30 300.00,983.20 294.50,982.10 286.40,981.60" />
    </edge>
    <edge id=":A2_15" function="internal">
        <lane id=":A2_15_0" index="0" speed="11.39" length="29.85" shape="313.60,981.60 304.15,980.65 297.40,977.80 293.35,973.05 292.00,966.40" />
        <lane id=":A2_15_1" index="1" speed="10.88" length="27.14" shape="313.60,981.60 305.55,980.65 299.80,977.80 296.35,973.05 295.20,966.40" />
        <lane id=":A2_15_2" index="2" speed="10.36" length="24.51" shape="313.60,981.60 306.95,980.65 302.20,977.80 299.35,973.05 298.40,966.40" />
    </edge>
    <edge id=":A2_18" function="internal">
        <lane id=":A2_18_0" index="0" speed="6.51" length="9.03" shape="308.00,966.40 308.35,968.85 309.40,970.60 311.15,971.65 313.60,972.00" />
        <lane id=":A2_18_1" index="1" speed="7.33" length="11.73" shape="308.00,966.40 308.35,970.25 309.40,973.00 311.15,974.65 313.60,975.20" />
        <lane id=":A2_18_2" index="2" speed="8.10" length="14.57" shape="308.00,966.40 308.35,971.65 309.40,975.40 311.15,977.65 313.60,978.40" />
    </edge>
    <edge id=":A2_21" function="internal">
        <lane id=":A2_21_0" index="0" speed="13.89" length="27.37" shape="304.80,966.40 305.30,974.50 306.40,980.00 307.50,985.50 308.00,993.60" />
        <lane id=":A2_21_1" index="1" speed="13.89" length="27.37" shape="304.80,966.40 304.80,993.60" />
        <lane id=":A2_21_2" index="2" speed="13.89" length="27.37" shape="304.80,966.40 304.30,974.50 303.20,980.00 302.10,985.50 301.60,993.60" />
    </edge>
    <edge id=":A2_24" function="internal">
        <lane id=":A2_24_0" index="0" speed="11.39" length="29.85" shape="301.60,966.40 300.65,975.85 297.80,982.60 293.05,986.65 286.40,988.00" />
        <lane id=":A2_24_1" index="1" speed="10.88" length="27.14" shape="301.60,966.40 300.65,974.45 297.80,980.20 293.05,983.65 286.40,984.80" />
        <lane id=":A2_24_2" index="2" speed="10.36" length="24.51" shape="301.60,966.40 300.65,973.05 297.80,977.80 293.05,980.65 286.40,981.60" />
    </edge>
    <edge id=":A2_27" function="internal">
        <lane id=":A2_27_0" index="0" speed="6.51" length="9.03" shape="286.40,972.00 288.85,971.65 290.60,970.60 291.65,968.85 292.00,966.40" />
        <lane id=":A2_27_1" index="1" speed="7.33" length="11.73" shape="286.40,972.00 290.25,971.65 293.00,970.60 294.65,968.85 295.20,966.40" />
        <lane id=":A2_27_2" index="2" speed="8.10" length="14.57" shape="286.40,972.00 291.65,971.65 295.40,970.60 297.65,968.85 298.40,966.40" />
    </edge>
    <edge id=":A2_30" function="internal">
        <lane id=":A2_30_0" index="0" speed="13.89" length="27.37" shape="286.40,975.20 294.50,974.70 300.00,973.60 305.50,972.50 313.60,972.00" />
        <lane id=":A2_30_1" index="1" speed="13.89" length="27.37" shape="286.40,975.20 313.60,975.20" />
        <lane id=":A2_30_2" index="2" speed="13.89" length="27.37" shape="286.40,975.20 294.50,975.70 300.00,976.80 305.50,977.90 313.60,978.40" />
    </edge>
    <edge id=":A2_33" function="internal">
        <lane id=":A2_33_0" index="0" speed="11.39" length="29.85" shape="286.40,978.40 295.85,979.35 302.60,982.20 306.65,986.95 308.00,993.60" />
        <lane id=":A2_33_1" index="1" speed="10.88" length="27.14" shape="286.40,978.40 294.45,979.35 300.20,982.20 303.65,986.95 304.80,993.60" />
        <lane id=":A2_33_2" index="2" speed="10.36" length="24.51" shape="286.40,978.40 293.05,979.35 297.80,982.20 300.65,986.95 301.60,993.60" />
    </edge>
    <edge id=":B0_0" function="internal">
        <lane id=":B0_0_0" index="0" speed="6.51" length="9.03" shape="632.00,313.60 631.65,311.15 630.60,309.40 628.85,308.35 626.40,308.00" />
        <lane id=":B0_0_1" index="1" speed="7.33" length="11.73" shape="632.00,313.60 631.65,309.75 630.60,307.00 628.85,305.35 626.40,304.80" />
        <lane id=":B0_0_2" index="2" speed="8.10" length="14.57" shape="632.00,313.60 631.65,308.35 630.60,304.60 628.85,302.35 626.40,301.60" />
    </edge>
    <edge id=":B0_3" function="internal">
        <lane id=":B0_3_0" index="0" speed="13.89" length="27.37" shape="635.20,313.60 634.70,305.50 633.60,300.00 632.50,294.50 632.00,286.40" />
        <lane id=":B0_3_1" index="1" speed="13.89" length="27.37" shape="635.20,313.60 635.20,286.40" />
        <lane id=":B0_3_2" index="2" speed="13.89" length="27.37" shape="635.20,313.60 635.70,305.50 636.80,300.00 637.90,294.50 638.40,286.40" />
    </edge>
    <edge id=":B0_6" function="internal">
        <lane id=":B0_6_0" index="0" speed="11.39" length="29.85" shape="638.40,313.60 639.35,304.15 642.20,297.40 646.95,293.35 653.60,292.00" />
        <lane id=":B0_6_1" index="1" speed="10.88" length="27.14" shape="638.40,313.60 639.35,305.55 642.20,299.80 646.95,296.35 653.60,295.20" />
        <lane id=":B0_6_2" index="2" speed="10.36" length="24.51" shape="638.40,313.60 639.35,306.95 642.20,302.20 646.95,299.35 653.60,298.40" />
    </edge>
    <edge id=":B0_9" function="internal">
        <lane id=":B0_9_0" index="0" speed="6.51" length="9.03" shape="653.60,308.00 651.15,308.35 649.40,309.40 648.35,311.15 648.00,313.60" />
        <lane id=":B0_9_1" index="1" speed="7.33" length="11.73" shape="653.60,308.00 649.75,308.35 647.00,309.40 645.35,311.15 644.80,313.60" />
        <lane id=":B0_9_2" index="2" speed="8.10" length="14.57" shape="653.60,308.00 648.35,308.35 644.60,309.40 642.35,311.15 641.60,313.60" />
    </edge>
    <edge id=":B0_12" function="internal">
        <lane id=":B0_12_0" index="0" speed="13.89" length="27.37" shape="653.60,304.80 645.50,305.30 640.00,306.40 634.50,307.50 626.40,308.00" />
        <lane id=":B0_12_1" index="1" speed="13.89" length="27.37" shape="653.60,304.80 626.40,304.80" />
        <lane id=":B0_12_2" index="2" speed="13.89" length="27.37" shape="653.60,304.80 645.50,304.30 640.00,303.20 634.50,302.10 626.40,301.60" />
    </edge>
    <edge id=":B0_15" function="internal">
        <lane id=":B0_15_0" index="0" speed="11.39" length="29.85" shape="653.60,301.60 644.15,300.65 637.40,297.80 633.35,293.05 632.00,286.40" />
        <lane id=":B0_15_1" index="1" speed="10.88" length="27.14" shape="653.60,301.60 645.55,300.65 639.80,297.80 636.35,293.05 635.20,286.40" />
        <lane id=":B0_15_2" index="2" speed="10.36" length="24.51" shape="653.60,301.60 646.95,300.65 642.20,297.80 639.35,293.05 638.40,286.40" />
    </edge>
    <edge id=":B0_18" function="internal">
        <lane id=":B0_18_0" index="0" speed="6.51" length="9.03" shape="648.00,286.40 648.35,288.85 649.40,290.60 651.15,291.65 653.60,292.00" />
        <lane id=":B0_18_1" index="1" speed="7.33" length="11.73" shape="648.00,286.40 648.35,290.25 649.40,293.00 651.15,294.65 653.60,295.20" />
        <lane id=":B0_18_2" index="2" speed="8.10" length="14.57" shape="648.00,286.40 648.35,291.65 649.40,295.40 651.15,297.65 653.60,298.40" />
    </edge>
    <edge id=":B0_21" function="internal">
        <lane id=":B0_21_0" index="0" speed="13.89" length="27.37" shape="644.80,286.40 645.30,294.50 646.40,300.00 647.50,305.50 648.00,313.60" />
        <lane id=":B0_21_1" index="1" speed="13.89" length="27.37" shape="644.80,286.40 644.80,313.60" />
        <lane id=":B0_21_2" index="2" speed="13.89" length="27.37" shape="644.80,286.40 644.30,294.50 643.20,300.00 642.10,305.50 641.60,313.60" />
    </edge>
    <edge id=":B0_24" function="internal">
        <lane id=":B0_24_0" index="0" speed="11.39" length="29.85" shape="641.60,286.40 640.65,295.85 637.80,302.60 633.05,306.65 626.40,308.00" />
        <lane id=":B0_24_1" index="1" speed="10.88" length="27.14" shape="641.60,286.40 640.65,294.45 637.80,300.20 633.05,303.65 626.40,304.80" />
        <lane id=":B0_24_2" index="2" speed="10.36" length="24.51" shape="641.60,286.40 640.65,293.05 637.80,297.80 633.05,300.65 626.40,301.60" />
    </edge>
    <edge id=":B0_27" function="internal">
        <lane id=":B0_27_0" index="0" speed="6.51" length="9.03" shape="626.40,292.00 628.85,291.65 630.60,290.60 631.65,288.85 632.00,286.40" />
        <lane id=":B0_27_1" index="1" speed="7.33" length="11.73" shape="626.40,292.00 630.25,291.65 633.00,290.60 634.65,288.85 635.20,286.40" />
        <lane id=":B0_27_2" index="2" speed="8.10" length="14.57" shape="626.40,292.00 631.65,291.65 635.40,290.60 637.65,288.85 638.40,286.40" />
    </edge>
    <edge id=":B0_30" function="internal">
        <lane id=":B0_30_0" index="0" speed="13.89" length="27.37" shape="626.40,295.20 634.50,294.70 640.00,293.60 645.50,292.50 653.60,292.00" />
        <lane id=":B0_30_1" index="1" speed="13.89" length="27.37" shape="626.40,295.20 653.60,295.20" />
        <lane id=":B0_30_2" index="2" speed="13.89" length="27.37" shape="626.40,295.20 634.50,295.70 640.00,296.80 645.50,297.90 653.60,298.40" />
    </edge>
    <edge id=":B0_33" function="internal">
        <lane id=":B0_33_0" index="0" speed="11.39" length="29.85" shape="626.40,298.40 635.85,299.35 642.60,302.20 646.65,306.95 648.00,313.60" />
        <lane id=":B0_33_1" index="1" speed="10.88" length="27.14" shape="626.40,298.40 634.45,299.35 640.20,302.20 643.65,306.95 644.80,313.60" />
        <lane id=":B0_33_2" index="2" speed="10.36" length="24.51" shape="626.40,298.40 633.05,299.35 637.80,302.20 640.65,306.95 641.60,313.60" />
    </edge>
    <edge id=":B1_0" function="internal">
        <lane id=":B1_0_0" index="0" speed="6.51" length="9.03" shape="632.00,653.60 631.65,651.15 630.60,649.40 628.85,648.35 626.40,648.00" />
        <lane id=":B1_0_1" index="1" speed="7.33" length="11.73" shape="632.00,653.60 631.65,649.75 630.60,647.00 628.85,645.35 626.40,644.80" />
        <lane id=":B1_0_2" index="2" speed="8.10" length="14.57" shape="632.00,653.60 631.65,648.35 630.60,644.60 628.85,642.35 626.40,641.60" />
    </edge>
    <edge id=":B1_3" function="internal">
        <lane id=":B1_3_0" index="0" speed="13.89" length="27.37" shape="635.20,653.60 634.70,645.50 633.60,640.00 632.50,634.50 632.00,626.40" />
        <lane id=":B1_3_1" index="1" speed="13.89" length="27.37" shape="635.20,653.60 635.20,626.40" />
        <lane id=":B1_3_2" index="2" speed="13.89" length="27.37" shape="635.20,653.60 635.70,645.50 636.80,640.00 637.90,634.50 638.40,626.40" />
    </edge>
    <edge id=":B1_6" function="internal">
        <lane id=":B1_6_0" index="0" speed="11.39" length="29.85" shape="638.40,653.60 639.35,644.15 642.20,637.40 646.95,633.35 653.60,632.00" />
        <lane id=":B1_6_1" index="1" speed="10.88" length="27.14" shape="638.40,653.60 639.35,645.55 642.20,639.80 646.95,636.35 653.60,635.20" />
        <lane id=":B1_6_2" index="2" speed="10.36" length="24.51" shape="638.40,653.60 639.35,646.95 642.20,642.20 646.95,639.35 653.60,638.40" />
    </edge>
    <edge id=":B1_9" function="internal">
        <lane id=":B1_9_0" index="0" speed="6.51" length="9.03" shape="653.60,648.00 651.15,648.35 649.40,649.40 648.35,651.15 648.00,653.60" />
        <lane id=":B1_9_1" index="1" speed="7.33" length="11.73" shape="653.60,648.00 649.75,648.35 647.00,649.40 645.35,651.15 644.80,653.60" />
        <lane id=":B1_9_2" index="2" speed="8.10" length="14.57" shape="653.60,648.00 648.35,648.35 644.60,649.40 642.35,651.15 641.60,653.60" />
    </edge>
    <edge id=":B1_12" function="internal">
        <lane id=":B1_12_0" index="0" speed="13.89" length="27.37" shape="653.60,644.80 645.50,645.30 640.00,646.40 634.50,647.50 626.40,648.00" />
        <lane id=":B1_12_1" index="1" speed="13.89" length="27.37" shape="653.60,644.80 626.40,644.80" />
        <lane id=":B1_12_2" index="2" speed="13.89" length="27.37" shape="653.60,644.80 645.50,644.30 640.00,643.20 634.50,642.10 626.40,641.60" />
    </edge>
    <edge id=":B1_15" function="internal">
        <lane id=":B1_15_0" index="0" speed="11.39" length="29.85" shape="653.60,641.60 644.15,640.65 637.40,637.80 633.35,633.05 632.00,626.40" />
        <lane id=":B1_15_1" index="1" speed="10.88" length="27.14" shape="653.60,641.60 645.55,640.65 639.80,637.80 636.35,633.05 635.20,626.40" />
        <lane id=":B1_15_2" index="2" speed="10.36" length="24.51" shape="653.60,641.60 646.95,640.65 642.20,637.80 639.35,633.05 638.40,626.40" />
    </edge>
    <edge id=":B1_18" function="internal">
        <lane id=":B1_18_0" index="0" speed="6.51" length="9.03" shape="648.00,626.40 648.35,628.85 649.40,630.60 651.15,631.65 653.60,632.00" />
        <lane id=":B1_18_1" index="1" speed="7.33" length="11.73" shape="648.00,626.40 648.35,630.25 649.40,633.00 651.15,634.65 653.60,635.20" />
        <lane id=":B1_18_2" index="2" speed="8.10" length="14.57" shape="648.00,626.40 648.35,631.65 649.40,635.40 651.15,637.65 653.60,638.40" />
    </edge>
    <edge id=":B1_21" function="internal">
        <lane id=":B1_21_0" index="0" speed="13.89" length="27.37" shape="644.80,626.40 645.30,634.50 646.40,640.00 647.50,645.50 648.00,653.60" />
        <lane id=":B1_21_1" index="1" speed="13.89" length="27.37" shape="644.80,626.40 644.80,653.60" />
        <lane id=":B1_21_2" index="2" speed="13.89" length="27.37" shape="644.80,626.40 644.30,634.50 643.20,640.00 642.10,645.50 641.60,653.60" />
    </edge>
    <edge id=":B1_24" function="internal">
        <lane id=":B1_24_0" index="0" speed="11.39" length="29.85" shape="641.60,626.40 640.65,635.85 637.80,642.60 633.05,646.65 626.40,648.00" />
        <lane id=":B1_24_1" index="1" speed="10.88" length="27.14" shape="641.60,626.40 640.65,634.45 637.80,640.20 633.05,643.65 626.40,644.80" />
        <lane id=":B1_24_2" index="2" speed="10.36" length="24.51" shape="641.60,626.40 640.65,633.05 637.80,637.80 633.05,640.65 626.40,641.60" />
    </edge>
    <edge id=":B1_27" function="internal">
        <lane id=":B1_27_0" index="0" speed="6.51" length="9.03" shape="626.40,632.00 628.85,631.65 630.60,630.60 631.65,628.85 632.00,626.40" />
        <lane id=":B1_27_1" index="1" speed="7.33" length="11.73" shape="626.40,632.00 630.25,631.65 633.00,630.60 634.65,628.85 635.20,626.40" />
        <lane id=":B1_27_2" index="2" speed="8.10" length="14.57" shape="626.40,632.00 631.65,631.65 635.40,630.60 637.65,628.85 638.40,626.40" />
    </edge>
    <edge id=":B1_30" function="internal">
        <lane id=":B1_30_0" index="0" speed="13.89" length="27.37" shape="626.40,635.20 634.50,634.70 640.00,633.60 645.50,632.50 653.60,632.00" />
        <lane id=":B1_30_1" index="1" speed="13.89" length="27.37" shape="626.40,635.20 653.60,635.20" />
        <lane id=":B1_30_2" index="2" speed="13.89" length="27.37" shape="626.40,635.20 634.50,635.70 640.00,636.80 645.50,637.90 653.60,638.40" />
    </edge>
    <edge id=":B1_33" function="internal">
        <lane id=":B1_33_0" index="0" speed="11.39" length="29.85" shape="626.40,638.40 635.85,639.35 642.60,642.20 646.65,646.95 648.00,653.60" />
        <lane id=":B1_33_1" index="1" speed="10.88" length="27.14" shape="626.40,638.40 634.45,639.35 640.20,642.20 643.65,646.95 644.80,653.60" />
        <lane id=":B1_33_2" index="2" speed="10.36" length="24.51" shape="626.40,638.40 633.05,639.35 637.80,642.20 640.65,646.95 641.60,653.60" />
    </edge>
    <edge id=":B2_0" function="internal">
        <lane id=":B2_0_0" index="0" speed="6.51" length="9.03" shape="632.00,993.60 631.65,991.15 630.60,989.40 628.85,988.35 626.40,988.00" />
        <lane id=":B2_0_1" index="1" speed="7.33" length="11.73" shape="632.00,993.60 631.65,989.75 630.60,987.00 628.85,985.35 626.40,984.80" />
        <lane id=":B2_0_2" index="2" speed="8.10" length="14.57" shape="632.00,993.60 631.65,988.35 630.60,984.60 628.85,982.35 626.40,981.60" />
    </edge>
    <edge id=":B2_3" function="internal">
        <lane id=":B2_3_0" index="0" speed="13.89" length="27.37" shape="635.20,993.60 634.70,985.50 633.60,980.00 632.50,974.50 632.00,966.40" />