<?xml version='1.0' encoding='utf-8'?>
<routes>
    <vType id="car" accel="2.6" decel="4.5" sigma="0.5" length="5" minGap="2.5" maxSpeed="15" guiShape="passenger" />
    <route id="route_0" edges="bottom0A0 A0A1 A1left1" />
    <route id="route_1" edges="bottom0A0 A0A1 A1A2 A2top0" />
    <route id="route_2" edges="bottom0A0 A0A1 A1A2 A2top0" />
    <route id="route_3" edges="bottom0A0 A0B0 B0bottom1" />
    <route id="route_4" edges="bottom0A0 A0A1 A1A2 A2B2 B2C2 C2right2" />
    <route id="route_5" edges="bottom1B0 B0B1 B1A1 A1A2 A2top0" />
    <route id="route_6" edges="bottom1B0 B0B1 B1B2 B2top1" />
    <route id="route_7" edges="bottom1B0 B0B1 B1B2 B2top1" />
    <route id="route_8" edges="bottom1B0 B0C0 C0bottom2" />
    <route id="route_9" edges="bottom1B0 B0B1 B1B2 B2C2 C2right2" />
    <route id="route_10" edges="bottom2C0 C0C1 C1B1 B1B2 B2top1" />
    <route id="route_11" edges="bottom2C0 C0right0" />
    <route id="route_12" edges="bottom2C0 C0C1 C1C2 C2right2" />
    <route id="route_13" edges="bottom2C0 C0C1 C1C2 C2top2" />
    <route id="route_14" edges="bottom2C0 C0C1 C1C2 C2top2" />
    <route id="route_15" edges="left0A0 A0bottom0" />
    <route id="route_16" edges="left0A0 A0B0 B0C0 C0bottom2" />
    <route id="route_17" edges="left0A0 A0B0 B0C0 C0right0" />
    <route id="route_18" edges="left0A0 A0B0 B0C0 C0right0" />
    <route id="route_19" edges="left0A0 A0B0 B0B1 B1C1 C1right1" />
    <route id="route_20" edges="left1A1 A1A0 A0left0" />
    <route id="route_21" edges="left1A1 A1B1 B1C1 C1C0 C0bottom2" />
    <route id="route_22" edges="left1A1 A1B1 B1C1 C1right1" />
    <route id="route_23" edges="left1A1 A1B1 B1C1 C1right1" />
    <route id="route_24" edges="left1A1 A1B1 B1B2 B2C2 C2right2" />
    <route id="route_25" edges="left2A2 A2A1 A1left1" />
    <route id="route_26" edges="left2A2 A2B2 B2top1" />
    <route id="route_27" edges="left2A2 A2B2 B2C2 C2C1 C1C0 C0bottom2" />
    <route id="route_28" edges="left2A2 A2B2 B2C2 C2right2" />
    <route id="route_29" edges="left2A2 A2B2 B2C2 C2right2" />
    <route id="route_30" edges="right0C0 C0B0 B0A0 A0left0" />
    <route id="route_31" edges="right0C0 C0B0 B0A0 A0left0" />
    <route id="route_32" edges="right0C0 C0B0 B0A0 A0A1 A1A2 A2top0" />
    <route id="route_33" edges="right0C0 C0B0 B0bottom1" />
    <route id="route_34" edges="right0C0 C0C1 C1right1" />
    <route id="route_35" edges="right1C1 C1B1 B1B0 B0A0 A0left0" />
    <route id="route_36" edges="right1C1 C1B1 B1A1 A1left1" />
    <route id="route_37" edges="right1C1 C1B1 B1A1 A1left1" />
    <route id="route_38" edges="right1C1 C1B1 B1A1 A1A2 A2top0" />
    <route id="route_39" edges="right1C1 C1C2 C2right2" />
    <route id="route_40" edges="right2C2 C2B2 B2B1 B1A1 A1left1" />
    <route id="route_41" edges="right2C2 C2B2 B2A2 A2left2" />
    <route id="route_42" edges="right2C2 C2B2 B2A2 A2left2" />
    <route id="route_43" edges="right2C2 C2B2 B2A2 A2top0" />
    <route id="route_44" edges="right2C2 C2top2" />
    <route id="route_45" edges="top0A2 A2A1 A1A0 A0bottom0" />
    <route id="route_46" edges="top0A2 A2A1 A1A0 A0bottom0" />
    <route id="route_47" edges="top0A2 A2A1 A1A0 A0left0" />
    <route id="route_48" edges="top0A2 A2left2" />
    <route id="route_49" edges="top0A2 A2A1 A1B1 B1B0 B0bottom1" />
    <route id="route_50" edges="top1B2 B2B1 B1B0 B0A0 A0left0" />
    <route id="route_51" edges="top1B2 B2A2 A2top0" />
    <route id="route_52" edges="top1B2 B2B1 B1B0 B0bottom1" />
    <route id="route_53" edges="top1B2 B2B1 B1B0 B0bottom1" />
    <route id="route_54" edges="top1B2 B2B1 B1C1 C1C0 C0bottom2" />
    <route id="route_55" edges="top2C2 C2C1 C1C0 C0B0 B0A0 A0left0" />
    <route id="route_56" edges="top2C2 C2B2 B2top1" />
    <route id="route_57" edges="top2C2 C2C1 C1C0 C0bottom2" />
    <route id="route_58" edges="top2C2 C2C1 C1C0 C0bottom2" />
    <route id="route_59" edges="top2C2 C2C1 C1right1" />
    <vehicle id="veh_438" type="car" route="route_16" depart="12.40" />
    <vehicle id="veh_144" type="car" route="route_9" depart="12.92" />
    <vehicle id="veh_0" type="car" route="route_4" depart="13.38" />
    <vehicle id="veh_1484" type="car" route="route_54" depart="13.50" />
    <vehicle id="veh_291" type="car" route="route_10" depart="21.28" />
    <vehicle id="veh_587" type="car" route="route_20" depart="22.21" />
    <vehicle id="veh_1636" type="car" route="route_55" depart="24.48" />
    <vehicle id="veh_1337" type="car" route="route_46" depart="25.02" />
    <vehicle id="veh_737" type="car" route="route_26" depart="26.04" />
    <vehicle id="veh_882" type="car" route="route_31" depart="27.01" />
    <vehicle id="veh_1026" type="car" route="route_37" depart="29.81" />
    <vehicle id="veh_1178" type="car" route="route_43" depart="33.38" />
    <vehicle id="veh_145" type="car" route="route_5" depart="35.11" />
    <vehicle id="veh_1485" type="car" route="route_50" depart="36.37" />
    <vehicle id="veh_588" type="car" route="route_20" depart="36.72" />
    <vehicle id="veh_439" type="car" route="route_16" depart="39.96" />
    <vehicle id="veh_1" type="car" route="route_4" depart="41.95" />
    <vehicle id="veh_1637" type="car" route="route_59" depart="41.98" />
    <vehicle id="veh_1027" type="car" route="route_36" depart="47.03" />
    <vehicle id="veh_1486" type="car" route="route_53" depart="47.42" />
    <vehicle id="veh_738" type="car" route="route_26" depart="48.28" />
    <vehicle id="veh_883" type="car" route="route_33" depart="49.03" />
    <vehicle id="veh_589" type="car" route="route_21" depart="50.53" />
    <vehicle id="veh_292" type="car" route="route_14" depart="51.13" />
    <vehicle id="veh_1338" type="car" route="route_47" depart="52.04" />
    <vehicle id="veh_1179" type="car" route="route_41" depart="60.92" />
    <vehicle id="veh_440" type="car" route="route_15" depart="62.26" />
    <vehicle id="veh_1339" type="car" route="route_48" depart="64.39" />
    <vehicle id="veh_146" type="car" route="route_5" depart="64.51" />
    <vehicle id="veh_1638" type="car" route="route_59" depart="65.83" />
    <vehicle id="veh_590" type="car" route="route_21" depart="66.85" />
    <vehicle id="veh_2" type="car" route="route_0" depart="68.59" />
    <vehicle id="veh_1028" type="car" route="route_37" depart="69.96" />
    <vehicle id="veh_884" type="car" route="route_31" depart="72.79" />
    <vehicle id="veh_1487" type="car" route="route_51" depart="74.47" />
    <vehicle id="veh_739" type="car" route="route_28" depart="75.54" />
    <vehicle id="veh_293" type="car" route="route_12" depart="76.89" />
    <vehicle id="veh_1180" type="car" route="route_44" depart="79.93" />
    <vehicle id="veh_441" type="car" route="route_19" depart="83.56" />
    <vehicle id="veh_591" type="car" route="route_21" depart="83.81" />
    <vehicle id="veh_1181" type="car" route="route_44" depart="88.30" />
    <vehicle id="veh_147" type="car" route="route_8" depart="90.12" />
    <vehicle id="veh_885" type="car" route="route_32" depart="92.50" />
    <vehicle id="veh_3" type="car" route="route_0" depart="92.70" />
    <vehicle id="veh_1340" type="car" route="route_49" depart="92.75" />
    <vehicle id="veh_294" type="car" route="route_10" depart="96.25" />
    <vehicle id="veh_1639" type="car" route="route_55" depart="98.14" />
    <vehicle id="veh_740" type="car" route="route_26" depart="98.57" />
    <vehicle id="veh_442" type="car" route="route_15" depart="98.60" />
    <vehicle id="veh_1029" type="car" route="route_35" depart="99.01" />
    <vehicle id="veh_1488" type="car" route="route_51" depart="100.95" />
    <vehicle id="veh_592" type="car" route="route_22" depart="103.64" />
    <vehicle id="veh_1182" type="car" route="route_43" depart="108.62" />
    <vehicle id="veh_1030" type="car" route="route_38" depart="111.00" />
    <vehicle id="veh_443" type="car" route="route_16" depart="113.15" />
    <vehicle id="veh_741" type="car" route="route_26" depart="114.75" />
    <vehicle id="veh_148" type="car" route="route_8" depart="116.58" />
    <vehicle id="veh_4" type="car" route="route_0" depart="118.17" />
    <vehicle id="veh_1640" type="car" route="route_56" depart="118.36" />
    <vehicle id="veh_1341" type="car" route="route_46" depart="118.46" />
    <vehicle id="veh_295" type="car" route="route_10" depart="118.50" />
    <vehicle id="veh_886" type="car" route="route_31" depart="118.55" />
    <vehicle id="veh_1489" type="car" route="route_50" depart="122.36" />
    <vehicle id="veh_593" type="car" route="route_21" depart="126.70" />
    <vehicle id="veh_444" type="car" route="route_18" depart="129.52" />
    <vehicle id="veh_1183" type="car" route="route_44" depart="129.85" />
    <vehicle id="veh_887" type="car" route="route_31" depart="132.13" />
    <vehicle id="veh_1031" type="car" route="route_37" depart="133.72" />
    <vehicle id="veh_742" type="car" route="route_29" depart="139.24" />
    <vehicle id="veh_149" type="car" route="route_5" depart="140.00" />
    <vehicle id="veh_1641" type="car" route="route_59" depart="140.51" />
    <vehicle id="veh_5" type="car" route="route_3" depart="140.55" />
    <vehicle id="veh_1342" type="car" route="route_48" depart="144.81" />
    <vehicle id="veh_296" type="car" route="route_10" depart="145.44" />
    <vehicle id="veh_1184" type="car" route="route_42" depart="149.56" />
    <vehicle id="veh_594" type="car" route="route_24" depart="150.45" />
    <vehicle id="veh_445" type="car" route="route_16" depart="153.86" />
    <vehicle id="veh_1490" type="car" route="route_53" depart="154.51" />
    <vehicle id="veh_1032" type="car" route="route_39" depart="154.89" />
    <vehicle id="veh_6" type="car" route="route_0" depart="158.69" />
    <vehicle id="veh_1185" type="car" route="route_41" depart="160.24" />
    <vehicle id="veh_595" type="car" route="route_20" depart="160.77" />
    <vehicle id="veh_888" type="car" route="route_32" depart="162.66" />
    <vehicle id="veh_1343" type="car" route="route_48" depart="162.82" />
    <vehicle id="veh_1642" type="car" route="route_59" depart="168.43" />
    <vehicle id="veh_150" type="car" route="route_5" depart="169.14" />
    <vehicle id="veh_743" type="car" route="route_28" depart="170.88" />
    <vehicle id="veh_446" type="car" route="route_15" depart="174.58" />
    <vehicle id="veh_297" type="car" route="route_11" depart="175.20" />
    <vehicle id="veh_1033" type="car" route="route_38" depart="176.94" />
    <vehicle id="veh_1491" type="car" route="route_50" depart="179.45" />
    <vehicle id="veh_1344" type="car" route="route_48" depart="180.01" />
    <vehicle id="veh_1186" type="car" route="route_44" depart="180.86" />
    <vehicle id="veh_1643" type="car" route="route_56" depart="184.78" />
    <vehicle id="veh_298" type="car" route="route_11" depart="187.67" />
    <vehicle id="veh_889" type="car" route="route_33" depart="188.60" />
    <vehicle id="veh_596" type="car" route="route_21" depart="188.87" />
    <vehicle id="veh_447" type="car" route="route_15" depart="190.44" />
    <vehicle id="veh_151" type="car" route="route_6" depart="194.29" />
    <vehicle id="veh_744" type="car" route="route_26" depart="195.20" />
    <vehicle id="veh_1345" type="car" route="route_49" depart="197.74" />
    <vehicle id="veh_7" type="car" route="route_3" depart="198.62" />
    <vehicle id="veh_1034" type="car" route="route_39" depart="200.89" />
    <vehicle id="veh_597" type="car" route="route_23" depart="201.95" />
    <vehicle id="veh_1644" type="car" route="route_59" depart="204.11" />
    <vehicle id="veh_1187" type="car" route="route_44" depart="206.25" />
    <vehicle id="veh_1492" type="car" route="route_51" depart="207.06" />
    <vehicle id="veh_890" type="car" route="route_30" depart="211.72" />
    <vehicle id="veh_745" type="car" route="route_27" depart="212.89" />
    <vehicle id="veh_1346" type="car" route="route_46" depart="215.70" />
    <vehicle id="veh_152" type="car" route="route_7" depart="217.36" />
    <vehicle id="veh_299" type="car" route="route_10" depart="217.83" />
    <vehicle id="veh_598" type="car" route="route_21" depart="218.14" />
    <vehicle id="veh_448" type="car" route="route_17" depart="218.36" />
    <vehicle id="veh_1188" type="car" route="route_43" depart="221.08" />
    <vehicle id="veh_8" type="car" route="route_4" depart="221.08" />
    <vehicle id="veh_1493" type="car" route="route_54" depart="222.83" />
    <vehicle id="veh_1645" type="car" route="route_57" depart="224.40" />
    <vehicle id="veh_1035" type="car" route="route_39" depart="225.85" />
    <vehicle id="veh_449" type="car" route="route_17" depart="228.63" />
    <vehicle id="veh_891" type="car" route="route_33" depart="232.12" />
    <vehicle id="veh_599" type="car" route="route_20" depart="233.93" />
    <vehicle id="veh_9" type="car" route="route_4" depart="235.50" />
    <vehicle id="veh_1036" type="car" route="route_39" depart="235.52" />
    <vehicle id="veh_1347" type="car" route="route_48" depart="237.81" />
    <vehicle id="veh_1646" type="car" route="route_58" depart="238.88" />
    <vehicle id="veh_300" type="car" route="route_13" depart="241.89" />
    <vehicle id="veh_746" type="car" route="route_28" depart="243.32" />
    <vehicle id="veh_1037" type="car" route="route_38" depart="243.70" />
    <vehicle id="veh_153" type="car" route="route_5" depart="250.65" />
    <vehicle id="veh_1494" type="car" route="route_50" depart="250.75" />
    <vehicle id="veh_1189" type="car" route="route_43" depart="253.78" />
    <vehicle id="veh_892" type="car" route="route_34" depart="254.40" />
    <vehicle id="veh_450" type="car" route="route_17" depart="256.56" />
    <vehicle id="veh_1348" type="car" route="route_46" depart="257.03" />
    <vehicle id="veh_1647" type="car" route="route_55" depart="257.40" />
    <vehicle id="veh_1495" type="car" route="route_50" depart="259.09" />
    <vehicle id="veh_1038" type="car" route="route_39" depart="260.08" />
    <vehicle id="veh_747" type="car" route="route_25" depart="262.59" />
    <vehicle id="veh_10" type="car" route="route_4" depart="265.00" />
    <vehicle id="veh_1349" type="car" route="route_47" depart="265.69" />
    <vehicle id="veh_451" type="car" route="route_18" depart="268.13" />
    <vehicle id="veh_1496" type="car" route="route_54" depart="270.57" />
    <vehicle id="veh_600" type="car" route="route_21" depart="272.24" />
    <vehicle id="veh_893" type="car" route="route_31" depart="275.26" />
    <vehicle id="veh_1190" type="car" route="route_40" depart="275.91" />
    <vehicle id="veh_154" type="car" route="route_6" depart="277.03" />
    <vehicle id="veh_11" type="car" route="route_0" depart="278.56" />
    <vehicle id="veh_1039" type="car" route="route_35" depart="280.18" />
    <vehicle id="veh_748" type="car" route="route_26" depart="282.22" />
    <vehicle id="veh_1648" type="car" route="route_55" depart="282.47" />
    <vehicle id="veh_301" type="car" route="route_11" depart="282.89" />
    <vehicle id="veh_1350" type="car" route="route_48" depart="286.89" />
    <vehicle id="veh_894" type="car" route="route_33" depart="289.16" />
    <vehicle id="veh_1191" type="car" route="route_42" depart="290.71" />
    <vehicle id="veh_1497" type="car" route="route_52" depart="291.41" />
    <vehicle id="veh_601" type="car" route="route_21" depart="293.43" />
    <vehicle id="veh_452" type="car" route="route_16" depart="295.18" />
    <vehicle id="veh_1192" type="car" route="route_42" depart="297.05" />
    <vehicle id="veh_1040" type="car" route="route_37" depart="297.11" />
    <vehicle id="veh_155" type="car" route="route_7" depart="299.58" />
    <vehicle id="veh_749" type="car" route="route_26" depart="300.33" />
    <vehicle id="veh_1649" type="car" route="route_56" depart="300.74" />
    <vehicle id="veh_302" type="car" route="route_12" depart="301.07" />
    <vehicle id="veh_895" type="car" route="route_34" depart="305.26" />
    <vehicle id="veh_12" type="car" route="route_4" depart="307.46" />
    <vehicle id="veh_303" type="car" route="route_12" depart="311.37" />
    <vehicle id="veh_1351" type="car" route="route_47" depart="314.22" />
    <vehicle id="veh_453" type="car" route="route_17" depart="314.80" />
    <vehicle id="veh_1498" type="car" route="route_50" depart="317.06" />
    <vehicle id="veh_602" type="car" route="route_20" depart="320.30" />
    <vehicle id="veh_1650" type="car" route="route_58" depart="322.10" />
    <vehicle id="veh_1041" type="car" route="route_36" depart="322.19" />
    <vehicle id="veh_13" type="car" route="route_3" depart="324.37" />
    <vehicle id="veh_1499" type="car" route="route_51" depart="325.67" />
    <vehicle id="veh_750" type="car" route="route_27" depart="326.44" />
    <vehicle id="veh_156" type="car" route="route_8" depart="328.41" />
    <vehicle id="veh_896" type="car" route="route_34" depart="328.42" />
    <vehicle id="veh_1193" type="car" route="route_40" depart="329.78" />
    <vehicle id="veh_1352" type="car" route="route_48" depart="336.43" />
    <vehicle id="veh_1500" type="car" route="route_51" depart="337.11" />
    <vehicle id="veh_304" type="car" route="route_11" depart="337.35" />
    <vehicle id="veh_603" type="car" route="route_22" depart="343.13" />
    <vehicle id="veh_454" type="car" route="route_16" depart="343.26" />
    <vehicle id="veh_751" type="car" route="route_27" depart="343.90" />
    <vehicle id="veh_1042" type="car" route="route_39" depart="344.73" />
    <vehicle id="veh_897" type="car" route="route_32" depart="345.52" />
    <vehicle id="veh_1651" type="car" route="route_57" depart="351.27" />
    <vehicle id="veh_14" type="car" route="route_0" depart="352.93" />
    <vehicle id="veh_157" type="car" route="route_9" depart="354.15" />
    <vehicle id="veh_1194" type="car" route="route_44" depart="358.66" />
    <vehicle id="veh_1501" type="car" route="route_54" depart="359.68" />
    <vehicle id="veh_1353" type="car" route="route_47" depart="361.05" />
    <vehicle id="veh_455" type="car" route="route_15" depart="362.45" />
    <vehicle id="veh_305" type="car" route="route_11" depart="365.49" />
    <vehicle id="veh_898" type="car" route="route_32" depart="366.95" />
    <vehicle id="veh_604" type="car" route="route_22" depart="367.20" />
    <vehicle id="veh_752" type="car" route="route_25" depart="368.32" />
    <vehicle id="veh_1043" type="car" route="route_36" depart="374.61" />
    <vehicle id="veh_306" type="car" route="route_10" depart="376.46" />
    <vehicle id="veh_1195" type="car" route="route_43" depart="379.19" />
    <vehicle id="veh_1652" type="car" route="route_59" depart="381.12" />
    <vehicle id="veh_456" type="car" route="route_17" depart="383.15" />
    <vehicle id="veh_899" type="car" route="route_32" depart="383.53" />
    <vehicle id="veh_1354" type="car" route="route_49" depart="384.80" />
    <vehicle id="veh_158" type="car" route="route_7" depart="386.29" />
    <vehicle id="veh_1502" type="car" route="route_52" depart="390.36" />
    <vehicle id="veh_605" type="car" route="route_22" depart="391.61" />
    <vehicle id="veh_15" type="car" route="route_3" depart="394.79" />
    <vehicle id="veh_753" type="car" route="route_27" depart="397.47" />
    <vehicle id="veh_307" type="car" route="route_14" depart="397.87" />
    <vehicle id="veh_1653" type="car" route="route_59" depart="400.63" />
    <vehicle id="veh_1044" type="car" route="route_35" depart="400.78" />
    <vehicle id="veh_900" type="car" route="route_31" depart="402.60" />
    <vehicle id="veh_159" type="car" route="route_7" depart="403.92" />
    <vehicle id="veh_457" type="car" route="route_15" depart="404.95" />
    <vehicle id="veh_1196" type="car" route="route_44" depart="405.24" />
    <vehicle id="veh_606" type="car" route="route_20" depart="409.88" />
    <vehicle id="veh_1355" type="car" route="route_45" depart="410.93" />
    <vehicle id="veh_1503" type="car" route="route_53" depart="411.43" />
    <vehicle id="veh_308" type="car" route="route_11" depart="412.91" />
    <vehicle id="veh_754" type="car" route="route_27" depart="413.91" />
    <vehicle id="veh_16" type="car" route="route_1" depart="414.03" />
    <vehicle id="veh_1045" type="car" route="route_39" depart="414.78" />
    <vehicle id="veh_1654" type="car" route="route_56" depart="422.58" />
    <vehicle id="veh_160" type="car" route="route_6" depart="425.53" />
    <vehicle id="veh_1504" type="car" route="route_50" depart="426.12" />
    <vehicle id="veh_309" type="car" route="route_10" depart="426.28" />
    <vehicle id="veh_458" type="car" route="route_15" depart="427.83" />
    <vehicle id="veh_1197" type="car" route="route_41" depart="431.36" />
    <vehicle id="veh_755" type="car" route="route_29" depart="432.66" />
    <vehicle id="veh_901" type="car" route="route_34" depart="435.00" />
    <vehicle id="veh_607" type="car" route="route_23" depart="436.08" />
    <vehicle id="veh_1356" type="car" route="route_47" depart="438.00" />
    <vehicle id="veh_1046" type="car" route="route_39" depart="441.38" />
    <vehicle id="veh_17" type="car" route="route_0" depart="441.55" />
    <vehicle id="veh_1655" type="car" route="route_55" depart="442.81" />
    <vehicle id="veh_310" type="car" route="route_13" depart="446.69" />
    <vehicle id="veh_161" type="car" route="route_7" depart="450.22" />
    <vehicle id="veh_1198" type="car" route="route_40" depart="451.48" />
    <vehicle id="veh_1505" type="car" route="route_51" depart="453.69" />
    <vehicle id="veh_459" type="car" route="route_18" depart="456.10" />
    <vehicle id="veh_902" type="car" route="route_31" depart="458.93" />
    <vehicle id="veh_1047" type="car" route="route_35" depart="462.12" />
    <vehicle id="veh_1357" type="car" route="route_49" depart="462.86" />
    <vehicle id="veh_756" type="car" route="route_29" depart="465.73" />
    <vehicle id="veh_311" type="car" route="route_10" depart="466.04" />
    <vehicle id="veh_18" type="car" route="route_2" depart="468.72" />
    <vehicle id="veh_1656" type="car" route="route_56" depart="469.15" />
    <vehicle id="veh_608" type="car" route="route_24" depart="470.08" />
    <vehicle id="veh_1506" type="car" route="route_51" depart="470.34" />
    <vehicle id="veh_162" type="car" route="route_5" depart="474.53" />
    <vehicle id="veh_1199" type="car" route="route_44" depart="474.71" />
    <vehicle id="veh_460" type="car" route="route_15" depart="476.64" />
    <vehicle id="veh_903" type="car" route="route_33" depart="482.45" />
    <vehicle id="veh_757" type="car" route="route_27" depart="482.45" />
    <vehicle id="veh_1200" type="car" route="route_44" depart="487.55" />
    <vehicle id="veh_1358" type="car" route="route_48" depart="488.69" />
    <vehicle id="veh_163" type="car" route="route_8" depart="489.90" />
    <vehicle id="veh_1657" type="car" route="route_56" depart="490.61" />
    <vehicle id="veh_1048" type="car" route="route_35" depart="492.15" />
    <vehicle id="veh_19" type="car" route="route_0" depart="493.12" />
    <vehicle id="veh_461" type="car" route="route_16" depart="493.74" />
    <vehicle id="veh_609" type="car" route="route_20" depart="496.07" />
    <vehicle id="veh_312" type="car" route="route_14" depart="497.44" />
    <vehicle id="veh_758" type="car" route="route_25" depart="501.43" />
    <vehicle id="veh_904" type="car" route="route_34" depart="502.26" />
    <vehicle id="veh_1507" type="car" route="route_51" depart="502.78" />
    <vehicle id="veh_20" type="car" route="route_0" depart="510.89" />
    <vehicle id="veh_164" type="car" route="route_8" depart="513.16" />
    <vehicle id="veh_1201" type="car" route="route_40" depart="513.52" />
    <vehicle id="veh_1049" type="car" route="route_35" depart="517.28" />
    <vehicle id="veh_610" type="car" route="route_24" depart="517.90" />
    <vehicle id="veh_1359" type="car" route="route_47" depart="519.54" />
    <vehicle id="veh_462" type="car" route="route_17" depart="519.64" />
    <vehicle id="veh_1508" type="car" route="route_51" depart="520.47" />
    <vehicle id="veh_759" type="car" route="route_27" depart="521.47" />
    <vehicle id="veh_1658" type="car" route="route_59" depart="522.44" />
    <vehicle id="veh_905" type="car" route="route_33" depart="523.90" />
    <vehicle id="veh_313" type="car" route="route_12" depart="525.95" />
    <vehicle id="veh_611" type="car" route="route_21" depart="530.29" />
    <vehicle id="veh_1050" type="car" route="route_38" depart="534.67" />
    <vehicle id="veh_165" type="car" route="route_9" depart="535.72" />
    <vehicle id="veh_21" type="car" route="route_4" depart="536.15" />
    <vehicle id="veh_760" type="car" route="route_28" depart="536.80" />
    <vehicle id="veh_1202" type="car" route="route_42" depart="541.32" />
    <vehicle id="veh_906" type="car" route="route_34" depart="543.61" />
    <vehicle id="veh_314" type="car" route="route_11" depart="546.20" />
    <vehicle id="veh_1509" type="car" route="route_54" depart="547.51" />
    <vehicle id="veh_463" type="car" route="route_16" depart="548.41" />
    <vehicle id="veh_1360" type="car" route="route_49" depart="551.65" />
    <vehicle id="veh_166" type="car" route="route_8" depart="554.05" />
    <vehicle id="veh_1203" type="car" route="route_43" depart="556.83" />
    <vehicle id="veh_1051" type="car" route="route_35" depart="558.47" />
    <vehicle id="veh_612" type="car" route="route_23" depart="558.78" />
    <vehicle id="veh_1659" type="car" route="route_59" depart="558.81" />
    <vehicle id="veh_761" type="car" route="route_27" depart="561.45" />
    <vehicle id="veh_907" type="car" route="route_30" depart="562.97" />
    <vehicle id="veh_1510" type="car" route="route_51" depart="566.24" />
    <vehicle id="veh_464" type="car" route="route_19" depart="566.35" />
    <vehicle id="veh_22" type="car" route="route_1" depart="568.37" />
    <vehicle id="veh_315" type="car" route="route_10" depart="568.47" />
    <vehicle id="veh_1361" type="car" route="route_48" depart="570.14" />
    <vehicle id="veh_908" type="car" route="route_33" depart="571.11" />
    <vehicle id="veh_1204" type="car" route="route_41" depart="574.32" />
    <vehicle id="veh_762" type="car" route="route_26" depart="576.67" />
    <vehicle id="veh_167" type="car" route="route_5" depart="579.67" />
    <vehicle id="veh_613" type="car" route="route_24" depart="580.22" />
    <vehicle id="veh_1362" type="car" route="route_45" depart="584.35" />
    <vehicle id="veh_1660" type="car" route="route_59" depart="586.18" />
    <vehicle id="veh_316" type="car" route="route_11" depart="587.27" />
    <vehicle id="veh_1511" type="car" route="route_54" depart="590.49" />
    <vehicle id="veh_1052" type="car" route="route_39" depart="591.97" />
    <vehicle id="veh_614" type="car" route="route_24" depart="593.87" />
    <vehicle id="veh_465" type="car" route="route_16" depart="593.89" />
    <vehicle id="veh_1205" type="car" route="route_40" depart="595.53" />
    <vehicle id="veh_909" type="car" route="route_31" depart="597.26" />
    <vehicle id="veh_763" type="car" route="route_29" depart="599.90" />
    <vehicle id="veh_23" type="car" route="route_3" depart="600.95" />
    <vehicle id="veh_317" type="car" route="route_13" depart="606.41" />
    <vehicle id="veh_168" type="car" route="route_7" depart="607.37" />
    <vehicle id="veh_1053" type="car" route="route_35" depart="607.91" />
    <vehicle id="veh_1363" type="car" route="route_45" depart="610.47" />
    <vehicle id="veh_615" type="car" route="route_23" depart="610.70" />
    <vehicle id="veh_764" type="car" route="route_27" depart="611.04" />
    <vehicle id="veh_1206" type="car" route="route_43" depart="614.60" />
    <vehicle id="veh_466" type="car" route="route_15" depart="614.61" />
    <vehicle id="veh_1512" type="car" route="route_51" depart="616.05" />
    <vehicle id="veh_910" type="car" route="route_32" depart="617.67" />
    <vehicle id="veh_1661" type="car" route="route_57" depart="621.46" />
    <vehicle id="veh_1054" type="car" route="route_38" depart="623.82" />
    <vehicle id="veh_1364" type="car" route="route_47" depart="628.47" />
    <vehicle id="veh_467" type="car" route="route_16" depart="635.22" />
    <vehicle id="veh_24" type="car" route="route_3" depart="635.37" />
    <vehicle id="veh_318" type="car" route="route_13" depart="636.86" />
    <vehicle id="veh_911" type="car" route="route_32" depart="637.22" />
    <vehicle id="veh_765" type="car" route="route_27" depart="637.64" />
    <vehicle id="veh_1207" type="car" route="route_41" depart="640.19" />
    <vehicle id="veh_616" type="car" route="route_20" depart="643.22" />
    <vehicle id="veh_169" type="car" route="route_5" depart="644.34" />
    <vehicle id="veh_1662" type="car" route="route_56" depart="644.50" />
    <vehicle id="veh_1513" type="car" route="route_50" depart="645.30" />
    <vehicle id="veh_319" type="car" route="route_14" depart="651.70" />
    <vehicle id="veh_617" type="car" route="route_20" depart="652.78" />
    <vehicle id="veh_766" type="car" route="route_27" depart="653.67" />
    <vehicle id="veh_1055" type="car" route="route_38" depart="654.60" />
    <vehicle id="veh_1365" type="car" route="route_48" depart="655.91" />
    <vehicle id="veh_25" type="car" route="route_4" depart="656.37" />
    <vehicle id="veh_1514" type="car" route="route_53" depart="660.30" />
    <vehicle id="veh_468" type="car" route="route_17" depart="665.14" />
    <vehicle id="veh_170" type="car" route="route_6" depart="666.71" />
    <vehicle id="veh_912" type="car" route="route_33" depart="667.39" />
    <vehicle id="veh_1208" type="car" route="route_43" depart="668.88" />
    <vehicle id="veh_618" type="car" route="route_24" depart="668.94" />
    <vehicle id="veh_1366" type="car" route="route_48" depart="669.45" />
    <vehicle id="veh_320" type="car" route="route_13" depart="674.08" />